
#======================================================================
# CRYSTAL DATA
#----------------------------------------------------------------------
data_VESTA_phase_1

_chemical_name_common                  ' Ni H'
_cell_length_a                         15.519210
_cell_length_b                         15.519210
_cell_length_c                         15.519210
_cell_angle_alpha                      90.000000
_cell_angle_beta                       90.000000
_cell_angle_gamma                      90.000000
_cell_volume                           1.000000
_space_group_name_H-M_alt              'P 1'
_space_group_IT_number                 1

loop_
_space_group_symop_operation_xyz
   'x, y, z'

loop_
   _atom_site_label
   _atom_site_occupancy
   _atom_site_fract_x
   _atom_site_fract_y
   _atom_site_fract_z
   _atom_site_adp_type
   _atom_site_U_iso_or_equiv
   _atom_site_type_symbol
   Ni1        1.0     0.217417     0.270745     0.213949    Uiso  ? Ni
   Ni2        1.0     0.446241     0.270439     0.213645    Uiso  ? Ni
   Ni3        1.0     0.673996     0.271726     0.214918    Uiso  ? Ni
   Ni4        1.0     0.331712     0.499758     0.100492    Uiso  ? Ni
   Ni5        1.0     0.216448     0.500095     0.211611    Uiso  ? Ni
   Ni6        1.0     0.331658     0.384307     0.212852    Uiso  ? Ni
   Ni7        1.0     0.446166     0.385250     0.101043    Uiso  ? Ni
   Ni8        1.0     0.560611     0.500024     0.101125    Uiso  ? Ni
   Ni9        1.0     0.446728     0.499773     0.211030    Uiso  ? Ni
   Ni10       1.0     0.561180     0.384865     0.213477    Uiso  ? Ni
   Ni11       1.0     0.674931     0.500039     0.213984    Uiso  ? Ni
   Ni12       1.0     0.217129     0.729405     0.214131    Uiso  ? Ni
   Ni13       1.0     0.331370     0.615499     0.211681    Uiso  ? Ni
   Ni14       1.0     0.446349     0.614778     0.100851    Uiso  ? Ni
   Ni15       1.0     0.446309     0.729854     0.213681    Uiso  ? Ni
   Ni16       1.0     0.561300     0.615168     0.213440    Uiso  ? Ni
   Ni17       1.0     0.673969     0.728457     0.214954    Uiso  ? Ni
   Ni18       1.0     0.331658     0.269393     0.327173    Uiso  ? Ni
   Ni19       1.0     0.216361     0.268063     0.442671    Uiso  ? Ni
   Ni20       1.0     0.331709     0.156948     0.442612    Uiso  ? Ni
   Ni21       1.0     0.446192     0.157537     0.328215    Uiso  ? Ni
   Ni22       1.0     0.561202     0.270104     0.327809    Uiso  ? Ni
   Ni23       1.0     0.446813     0.267533     0.442388    Uiso  ? Ni
   Ni24       1.0     0.560709     0.157535     0.442870    Uiso  ? Ni
   Ni25       1.0     0.787347     0.271872     0.329013    Uiso  ? Ni
   Ni26       1.0     0.675049     0.270564     0.442841    Uiso  ? Ni
   Ni27       1.0     0.100323     0.500265     0.327836    Uiso  ? Ni
   Ni28       1.0     0.100397     0.384890     0.442760    Uiso  ? Ni
   Ni29       1.0     0.215914     0.382695     0.325635    Uiso  ? Ni
   Ni30       1.0     0.330975     0.498758     0.325776    Uiso  ? Ni
   Ni31       1.0     0.214464     0.502107     0.442494    Uiso  ? Ni
   Ni32       1.0     0.331056     0.382228     0.440880    Uiso  ? Ni
   Ni33       1.0     0.447216     0.381937     0.324929    Uiso  ? Ni
   Ni34       1.0     0.563672     0.499793     0.325490    Uiso  ? Ni
   Ni35       1.0     0.446105     0.500141     0.441816    Uiso  ? Ni
   Ni36       1.0     0.563717     0.382268     0.442092    Uiso  ? Ni
   Ni37       1.0     0.675337     0.384876     0.327897    Uiso  ? Ni
   Ni38       1.0     0.787639     0.500067     0.328374    Uiso  ? Ni
   Ni39       1.0     0.677853     0.500020     0.442333    Uiso  ? Ni
   Ni40       1.0     0.787639     0.385320     0.442906    Uiso  ? Ni
   Ni41       1.0     0.899708     0.500069     0.443007    Uiso  ? Ni
   Ni42       1.0     0.101756     0.616055     0.443206    Uiso  ? Ni
   Ni43       1.0     0.214425     0.617649     0.327513    Uiso  ? Ni
   Ni44       1.0     0.331201     0.732017     0.328000    Uiso  ? Ni
   Ni45       1.0     0.215922     0.730709     0.443166    Uiso  ? Ni
   Ni46       1.0     0.328901     0.618410     0.443819    Uiso  ? Ni
   Ni47       1.0     0.448105     0.617836     0.325622    Uiso  ? Ni
   Ni48       1.0     0.561364     0.730269     0.327970    Uiso  ? Ni
   Ni49       1.0     0.446339     0.732709     0.442703    Uiso  ? Ni
   Ni50       1.0     0.563936     0.617942     0.442334    Uiso  ? Ni
   Ni51       1.0     0.675218     0.615185     0.327930    Uiso  ? Ni
   Ni52       1.0     0.787323     0.728297     0.328987    Uiso  ? Ni
   Ni53       1.0     0.675184     0.729692     0.442822    Uiso  ? Ni
   Ni54       1.0     0.787721     0.614806     0.442790    Uiso  ? Ni
   Ni55       1.0     0.331118     0.843052     0.443225    Uiso  ? Ni
   Ni56       1.0     0.446258     0.842952     0.328404    Uiso  ? Ni
   Ni57       1.0     0.560638     0.842709     0.442900    Uiso  ? Ni
   Ni58       1.0     0.331489     0.267632     0.558056    Uiso  ? Ni
   Ni59       1.0     0.216560     0.269957     0.672685    Uiso  ? Ni
   Ni60       1.0     0.446472     0.157286     0.557705    Uiso  ? Ni
   Ni61       1.0     0.561649     0.269419     0.557639    Uiso  ? Ni
   Ni62       1.0     0.446454     0.269497     0.672973    Uiso  ? Ni
   Ni63       1.0     0.560249     0.158002     0.671538    Uiso  ? Ni
   Ni64       1.0     0.674129     0.157917     0.557180    Uiso  ? Ni
   Ni65       1.0     0.787479     0.271676     0.557108    Uiso  ? Ni
   Ni66       1.0     0.674644     0.270978     0.671520    Uiso  ? Ni
   Ni67       1.0     0.100000     0.500803     0.558013    Uiso  ? Ni
   Ni68       1.0     0.214245     0.382818     0.559682    Uiso  ? Ni
   Ni69       1.0     0.330347     0.501758     0.557450    Uiso  ? Ni
   Ni70       1.0     0.214072     0.500517     0.674695    Uiso  ? Ni
   Ni71       1.0     0.330859     0.382263     0.675078    Uiso  ? Ni
   Ni72       1.0     0.448467     0.381332     0.559569    Uiso  ? Ni
   Ni73       1.0     0.564351     0.499946     0.557707    Uiso  ? Ni
   Ni74       1.0     0.446437     0.498489     0.675376    Uiso  ? Ni
   Ni75       1.0     0.562094     0.382394     0.673121    Uiso  ? Ni
   Ni76       1.0     0.675645     0.384389     0.557552    Uiso  ? Ni
   Ni77       1.0     0.787932     0.499996     0.557192    Uiso  ? Ni
   Ni78       1.0     0.677269     0.499786     0.672285    Uiso  ? Ni
   Ni79       1.0     0.787774     0.385404     0.671286    Uiso  ? Ni
   Ni80       1.0     0.900000     0.386106     0.556956    Uiso  ? Ni
   Ni81       1.0     0.899904     0.500075     0.670884    Uiso  ? Ni
   Ni82       1.0     0.214829     0.618478     0.558244    Uiso  ? Ni
   Ni83       1.0     0.330611     0.731387     0.557781    Uiso  ? Ni
   Ni84       1.0     0.216301     0.730194     0.672154    Uiso  ? Ni
   Ni85       1.0     0.328905     0.618016     0.673195    Uiso  ? Ni
   Ni86       1.0     0.446810     0.619003     0.558047    Uiso  ? Ni
   Ni87       1.0     0.561637     0.730880     0.557380    Uiso  ? Ni
   Ni88       1.0     0.445957     0.732234     0.672460    Uiso  ? Ni
   Ni89       1.0     0.563184     0.617318     0.672699    Uiso  ? Ni
   Ni90       1.0     0.676131     0.615705     0.557325    Uiso  ? Ni
   Ni91       1.0     0.787598     0.728569     0.557073    Uiso  ? Ni
   Ni92       1.0     0.674900     0.729406     0.671446    Uiso  ? Ni
   Ni93       1.0     0.787686     0.614644     0.671312    Uiso  ? Ni
   Ni94       1.0     0.899939     0.614034     0.556960    Uiso  ? Ni
   Ni95       1.0     0.445956     0.843015     0.557366    Uiso  ? Ni
   Ni96       1.0     0.560417     0.842557     0.671416    Uiso  ? Ni
   Ni97       1.0     0.674198     0.842359     0.557110    Uiso  ? Ni
   Ni98       1.0     0.331543     0.270561     0.786393    Uiso  ? Ni
   Ni99       1.0     0.560317     0.270997     0.785927    Uiso  ? Ni
   Ni100      1.0     0.787176     0.272126     0.784815    Uiso  ? Ni
   Ni101      1.0     0.330690     0.500068     0.789083    Uiso  ? Ni
   Ni102      1.0     0.446348     0.384080     0.787260    Uiso  ? Ni
   Ni103      1.0     0.561302     0.499756     0.788458    Uiso  ? Ni
   Ni104      1.0     0.445878     0.499734     0.899508    Uiso  ? Ni
   Ni105      1.0     0.560094     0.385394     0.899144    Uiso  ? Ni
   Ni106      1.0     0.674556     0.385350     0.785800    Uiso  ? Ni
   Ni107      1.0     0.787739     0.500021     0.785439    Uiso  ? Ni
   Ni108      1.0     0.674205     0.500013     0.899097    Uiso  ? Ni
   Ni109      1.0     0.331140     0.729605     0.786211    Uiso  ? Ni
   Ni110      1.0     0.445872     0.615620     0.788433    Uiso  ? Ni
   Ni111      1.0     0.560369     0.729321     0.785965    Uiso  ? Ni
   Ni112      1.0     0.560238     0.614623     0.899314    Uiso  ? Ni
   Ni113      1.0     0.674750     0.614677     0.785945    Uiso  ? Ni
   Ni114      1.0     0.787190     0.728070     0.784829    Uiso  ? Ni
   H1         1.0     0.446865     0.500078     0.558048    Uiso  ? H
   H2         1.0     0.215500     0.500102     0.326848    Uiso  ? H
   H3         1.0     0.215657     0.384357     0.442275    Uiso  ? H
   H4         1.0     0.446982     0.499423     0.325371    Uiso  ? H
   H5         1.0     0.447125     0.382892     0.441835    Uiso  ? H
   H6         1.0     0.563622     0.500226     0.441823    Uiso  ? H
   H7         1.0     0.330800     0.616039     0.327526    Uiso  ? H
   H8         1.0     0.446382     0.617210     0.442701    Uiso  ? H
   H9         1.0     0.331419     0.383581     0.558437    Uiso  ? H
   H10        1.0     0.214774     0.501697     0.558092    Uiso  ? H
   H11        1.0     0.330028     0.500099     0.674639    Uiso  ? H
   H12        1.0     0.562547     0.499358     0.673341    Uiso  ? H
   H13        1.0     0.446019     0.616650     0.673469    Uiso  ? H
