
#======================================================================
# CRYSTAL DATA
#----------------------------------------------------------------------
data_VESTA_phase_1

_chemical_name_common                  ' Ni H'
_cell_length_a                         15.507573
_cell_length_b                         15.507573
_cell_length_c                         15.507573
_cell_angle_alpha                      90.000000
_cell_angle_beta                       90.000000
_cell_angle_gamma                      90.000000
_cell_volume                           1.000000
_space_group_name_H-M_alt              'P 1'
_space_group_IT_number                 1

loop_
_space_group_symop_operation_xyz
   'x, y, z'

loop_
   _atom_site_label
   _atom_site_occupancy
   _atom_site_fract_x
   _atom_site_fract_y
   _atom_site_fract_z
   _atom_site_adp_type
   _atom_site_U_iso_or_equiv
   _atom_site_type_symbol
   Ni1        1.0     0.217046     0.270712     0.214001    Uiso  ? Ni
   Ni2        1.0     0.446030     0.270418     0.213740    Uiso  ? Ni
   Ni3        1.0     0.673929     0.271722     0.214995    Uiso  ? Ni
   Ni4        1.0     0.331432     0.499865     0.100466    Uiso  ? Ni
   Ni5        1.0     0.216112     0.500206     0.211713    Uiso  ? Ni
   Ni6        1.0     0.331375     0.384350     0.212901    Uiso  ? Ni
   Ni7        1.0     0.445957     0.385282     0.101011    Uiso  ? Ni
   Ni8        1.0     0.560462     0.500129     0.101069    Uiso  ? Ni
   Ni9        1.0     0.446542     0.499891     0.211108    Uiso  ? Ni
   Ni10       1.0     0.561038     0.384944     0.213565    Uiso  ? Ni
   Ni11       1.0     0.674793     0.500168     0.214082    Uiso  ? Ni
   Ni12       1.0     0.216812     0.729593     0.214259    Uiso  ? Ni
   Ni13       1.0     0.331107     0.615667     0.211784    Uiso  ? Ni
   Ni14       1.0     0.446131     0.614946     0.100814    Uiso  ? Ni
   Ni15       1.0     0.446099     0.730061     0.213786    Uiso  ? Ni
   Ni16       1.0     0.561138     0.615316     0.213525    Uiso  ? Ni
   Ni17       1.0     0.673856     0.728654     0.215079    Uiso  ? Ni
   Ni18       1.0     0.331337     0.269435     0.327358    Uiso  ? Ni
   Ni19       1.0     0.215971     0.268095     0.442881    Uiso  ? Ni
   Ni20       1.0     0.331355     0.156805     0.442798    Uiso  ? Ni
   Ni21       1.0     0.445975     0.157359     0.328293    Uiso  ? Ni
   Ni22       1.0     0.561095     0.270161     0.328003    Uiso  ? Ni
   Ni23       1.0     0.446588     0.267387     0.442339    Uiso  ? Ni
   Ni24       1.0     0.560624     0.157413     0.443072    Uiso  ? Ni
   Ni25       1.0     0.787324     0.271899     0.329189    Uiso  ? Ni
   Ni26       1.0     0.674975     0.270662     0.443102    Uiso  ? Ni
   Ni27       1.0     0.100060     0.500382     0.328147    Uiso  ? Ni
   Ni28       1.0     0.100012     0.385037     0.443030    Uiso  ? Ni
   Ni29       1.0     0.215536     0.382790     0.325755    Uiso  ? Ni
   Ni30       1.0     0.330772     0.498902     0.325909    Uiso  ? Ni
   Ni31       1.0     0.214609     0.502241     0.443244    Uiso  ? Ni
   Ni32       1.0     0.330560     0.382688     0.441158    Uiso  ? Ni
   Ni33       1.0     0.447002     0.382073     0.325092    Uiso  ? Ni
   Ni34       1.0     0.563465     0.499950     0.325838    Uiso  ? Ni
   Ni35       1.0     0.445814     0.500554     0.442486    Uiso  ? Ni
   Ni36       1.0     0.563771     0.382713     0.442400    Uiso  ? Ni
   Ni37       1.0     0.675262     0.385026     0.328081    Uiso  ? Ni
   Ni38       1.0     0.787457     0.500221     0.328699    Uiso  ? Ni
   Ni39       1.0     0.677378     0.500234     0.443089    Uiso  ? Ni
   Ni40       1.0     0.787514     0.385528     0.443223    Uiso  ? Ni
   Ni41       1.0     0.899642     0.500208     0.443399    Uiso  ? Ni
   Ni42       1.0     0.101554     0.616110     0.443629    Uiso  ? Ni
   Ni43       1.0     0.214185     0.617735     0.327803    Uiso  ? Ni
   Ni44       1.0     0.330954     0.732112     0.328330    Uiso  ? Ni
   Ni45       1.0     0.215740     0.730739     0.443605    Uiso  ? Ni
   Ni46       1.0     0.328715     0.618185     0.444563    Uiso  ? Ni
   Ni47       1.0     0.447906     0.617990     0.325843    Uiso  ? Ni
   Ni48       1.0     0.561196     0.730368     0.328292    Uiso  ? Ni
   Ni49       1.0     0.446125     0.732813     0.443140    Uiso  ? Ni
   Ni50       1.0     0.563718     0.617818     0.443068    Uiso  ? Ni
   Ni51       1.0     0.675020     0.615301     0.328235    Uiso  ? Ni
   Ni52       1.0     0.787231     0.728466     0.329243    Uiso  ? Ni
   Ni53       1.0     0.674967     0.729754     0.443262    Uiso  ? Ni
   Ni54       1.0     0.787524     0.614900     0.443227    Uiso  ? Ni
   Ni55       1.0     0.330880     0.843195     0.443655    Uiso  ? Ni
   Ni56       1.0     0.446049     0.843161     0.328665    Uiso  ? Ni
   Ni57       1.0     0.560458     0.842851     0.443327    Uiso  ? Ni
   Ni58       1.0     0.330921     0.267790     0.558282    Uiso  ? Ni
   Ni59       1.0     0.216229     0.270175     0.673024    Uiso  ? Ni
   Ni60       1.0     0.446234     0.156882     0.557671    Uiso  ? Ni
   Ni61       1.0     0.561761     0.269572     0.557934    Uiso  ? Ni
   Ni62       1.0     0.446223     0.268447     0.673157    Uiso  ? Ni
   Ni63       1.0     0.560347     0.157523     0.671841    Uiso  ? Ni
   Ni64       1.0     0.674093     0.157790     0.557457    Uiso  ? Ni
   Ni65       1.0     0.787316     0.271836     0.557453    Uiso  ? Ni
   Ni66       1.0     0.674504     0.271234     0.671857    Uiso  ? Ni
   Ni67       1.0     0.100000     0.500974     0.558640    Uiso  ? Ni
   Ni68       1.0     0.213921     0.383271     0.560061    Uiso  ? Ni
   Ni69       1.0     0.330322     0.502277     0.559931    Uiso  ? Ni
   Ni70       1.0     0.215212     0.500963     0.675231    Uiso  ? Ni
   Ni71       1.0     0.329175     0.384464     0.675426    Uiso  ? Ni
   Ni72       1.0     0.448349     0.382038     0.558512    Uiso  ? Ni
   Ni73       1.0     0.564054     0.500564     0.560005    Uiso  ? Ni
   Ni74       1.0     0.446532     0.500554     0.675780    Uiso  ? Ni
   Ni75       1.0     0.563398     0.384691     0.673403    Uiso  ? Ni
   Ni76       1.0     0.675452     0.384995     0.557930    Uiso  ? Ni
   Ni77       1.0     0.787498     0.500211     0.557901    Uiso  ? Ni
   Ni78       1.0     0.675584     0.500306     0.672787    Uiso  ? Ni
   Ni79       1.0     0.787211     0.385924     0.671659    Uiso  ? Ni
   Ni80       1.0     0.899913     0.386266     0.557347    Uiso  ? Ni
   Ni81       1.0     0.900000     0.500208     0.671253    Uiso  ? Ni
   Ni82       1.0     0.214911     0.618365     0.559013    Uiso  ? Ni
   Ni83       1.0     0.330467     0.731136     0.558494    Uiso  ? Ni
   Ni84       1.0     0.216336     0.730007     0.672584    Uiso  ? Ni
   Ni85       1.0     0.328752     0.616716     0.673721    Uiso  ? Ni
   Ni86       1.0     0.446646     0.618918     0.558707    Uiso  ? Ni
   Ni87       1.0     0.561404     0.730634     0.558097    Uiso  ? Ni
   Ni88       1.0     0.445787     0.731883     0.672886    Uiso  ? Ni
   Ni89       1.0     0.562999     0.615932     0.673162    Uiso  ? Ni
   Ni90       1.0     0.675674     0.615567     0.558062    Uiso  ? Ni
   Ni91       1.0     0.787406     0.728633     0.557498    Uiso  ? Ni
   Ni92       1.0     0.674454     0.729183     0.671854    Uiso  ? Ni
   Ni93       1.0     0.787309     0.614547     0.671708    Uiso  ? Ni
   Ni94       1.0     0.899924     0.614151     0.557348    Uiso  ? Ni
   Ni95       1.0     0.445755     0.843154     0.557817    Uiso  ? Ni
   Ni96       1.0     0.560174     0.842786     0.671800    Uiso  ? Ni
   Ni97       1.0     0.673987     0.842513     0.557527    Uiso  ? Ni
   Ni98       1.0     0.331064     0.270875     0.786658    Uiso  ? Ni
   Ni99       1.0     0.560338     0.271343     0.786174    Uiso  ? Ni
   Ni100      1.0     0.787053     0.272262     0.785178    Uiso  ? Ni
   Ni101      1.0     0.330519     0.500724     0.787538    Uiso  ? Ni
   Ni102      1.0     0.446099     0.385121     0.788966    Uiso  ? Ni
   Ni103      1.0     0.561229     0.500340     0.786884    Uiso  ? Ni
   Ni104      1.0     0.445694     0.500351     0.899534    Uiso  ? Ni
   Ni105      1.0     0.560211     0.386056     0.899435    Uiso  ? Ni
   Ni106      1.0     0.674480     0.385888     0.786164    Uiso  ? Ni
   Ni107      1.0     0.787336     0.500244     0.785516    Uiso  ? Ni
   Ni108      1.0     0.673761     0.500279     0.899101    Uiso  ? Ni
   Ni109      1.0     0.330973     0.729385     0.786313    Uiso  ? Ni
   Ni110      1.0     0.445737     0.615575     0.788630    Uiso  ? Ni
   Ni111      1.0     0.560176     0.729090     0.786046    Uiso  ? Ni
   Ni112      1.0     0.560082     0.614494     0.899340    Uiso  ? Ni
   Ni113      1.0     0.674385     0.614636     0.786051    Uiso  ? Ni
   Ni114      1.0     0.787050     0.728182     0.785168    Uiso  ? Ni
   H1         1.0     0.446820     0.500764     0.558970    Uiso  ? H
   H2         1.0     0.215246     0.500212     0.327293    Uiso  ? H
   H3         1.0     0.215137     0.384436     0.442517    Uiso  ? H
   H4         1.0     0.446841     0.499607     0.325732    Uiso  ? H
   H5         1.0     0.446801     0.382984     0.441576    Uiso  ? H
   H6         1.0     0.563250     0.500311     0.443021    Uiso  ? H
   H7         1.0     0.330552     0.616197     0.327954    Uiso  ? H
   H8         1.0     0.446182     0.617551     0.442993    Uiso  ? H
   H9         1.0     0.330742     0.384320     0.558582    Uiso  ? H
   H10        1.0     0.215353     0.501859     0.559301    Uiso  ? H
   H11        1.0     0.446816     0.384232     0.674544    Uiso  ? H
   H12        1.0     0.445670     0.616444     0.673957    Uiso  ? H
