
#======================================================================
# CRYSTAL DATA
#----------------------------------------------------------------------
data_VESTA_phase_1

_chemical_name_common                  ' Ni H'
_cell_length_a                         15.485858
_cell_length_b                         15.485858
_cell_length_c                         15.485858
_cell_angle_alpha                      90.000000
_cell_angle_beta                       90.000000
_cell_angle_gamma                      90.000000
_cell_volume                           1.000000
_space_group_name_H-M_alt              'P 1'
_space_group_IT_number                 1

loop_
_space_group_symop_operation_xyz
   'x, y, z'

loop_
   _atom_site_label
   _atom_site_occupancy
   _atom_site_fract_x
   _atom_site_fract_y
   _atom_site_fract_z
   _atom_site_adp_type
   _atom_site_U_iso_or_equiv
   _atom_site_type_symbol
   Ni1        1.0     0.216944     0.270632     0.214038    Uiso  ? Ni
   Ni2        1.0     0.445308     0.271006     0.214429    Uiso  ? Ni
   Ni3        1.0     0.672967     0.271554     0.214953    Uiso  ? Ni
   Ni4        1.0     0.331538     0.499625     0.100866    Uiso  ? Ni
   Ni5        1.0     0.216731     0.499622     0.211925    Uiso  ? Ni
   Ni6        1.0     0.331582     0.384794     0.213744    Uiso  ? Ni
   Ni7        1.0     0.445359     0.385415     0.101182    Uiso  ? Ni
   Ni8        1.0     0.559218     0.499616     0.101363    Uiso  ? Ni
   Ni9        1.0     0.445760     0.499283     0.213847    Uiso  ? Ni
   Ni10       1.0     0.559439     0.385162     0.214558    Uiso  ? Ni
   Ni11       1.0     0.673244     0.499579     0.214660    Uiso  ? Ni
   Ni12       1.0     0.216814     0.728884     0.213920    Uiso  ? Ni
   Ni13       1.0     0.331281     0.614427     0.213465    Uiso  ? Ni
   Ni14       1.0     0.445359     0.613845     0.101370    Uiso  ? Ni
   Ni15       1.0     0.445299     0.728665     0.214124    Uiso  ? Ni
   Ni16       1.0     0.559738     0.614036     0.214256    Uiso  ? Ni
   Ni17       1.0     0.673075     0.727923     0.214851    Uiso  ? Ni
   Ni18       1.0     0.331524     0.270166     0.327944    Uiso  ? Ni
   Ni19       1.0     0.216535     0.268613     0.443078    Uiso  ? Ni
   Ni20       1.0     0.331255     0.157117     0.442789    Uiso  ? Ni
   Ni21       1.0     0.445237     0.157368     0.328565    Uiso  ? Ni
   Ni22       1.0     0.559433     0.270651     0.328008    Uiso  ? Ni
   Ni23       1.0     0.445459     0.269905     0.442076    Uiso  ? Ni
   Ni24       1.0     0.559233     0.157220     0.442515    Uiso  ? Ni
   Ni25       1.0     0.786675     0.271640     0.328846    Uiso  ? Ni
   Ni26       1.0     0.673567     0.270915     0.442432    Uiso  ? Ni
   Ni27       1.0     0.100051     0.499665     0.327962    Uiso  ? Ni
   Ni28       1.0     0.100028     0.384484     0.443305    Uiso  ? Ni
   Ni29       1.0     0.216572     0.382901     0.326301    Uiso  ? Ni
   Ni30       1.0     0.332771     0.499251     0.326904    Uiso  ? Ni
   Ni31       1.0     0.215208     0.499399     0.444050    Uiso  ? Ni
   Ni32       1.0     0.332448     0.383215     0.441910    Uiso  ? Ni
   Ni33       1.0     0.445785     0.383964     0.326888    Uiso  ? Ni
   Ni34       1.0     0.560078     0.499279     0.326913    Uiso  ? Ni
   Ni35       1.0     0.446136     0.497667     0.440123    Uiso  ? Ni
   Ni36       1.0     0.560100     0.383971     0.440190    Uiso  ? Ni
   Ni37       1.0     0.673571     0.385210     0.328052    Uiso  ? Ni
   Ni38       1.0     0.786896     0.499615     0.328502    Uiso  ? Ni
   Ni39       1.0     0.674521     0.499285     0.441638    Uiso  ? Ni
   Ni40       1.0     0.787198     0.385371     0.442388    Uiso  ? Ni
   Ni41       1.0     0.899915     0.499714     0.442893    Uiso  ? Ni
   Ni42       1.0     0.100000     0.614861     0.443318    Uiso  ? Ni
   Ni43       1.0     0.216196     0.616437     0.326040    Uiso  ? Ni
   Ni44       1.0     0.331208     0.729565     0.327650    Uiso  ? Ni
   Ni45       1.0     0.216141     0.731085     0.443111    Uiso  ? Ni
   Ni46       1.0     0.330769     0.615719     0.441998    Uiso  ? Ni
   Ni47       1.0     0.445792     0.614822     0.325403    Uiso  ? Ni
   Ni48       1.0     0.559703     0.729006     0.327765    Uiso  ? Ni
   Ni49       1.0     0.445369     0.731345     0.442187    Uiso  ? Ni
   Ni50       1.0     0.561759     0.614881     0.440258    Uiso  ? Ni
   Ni51       1.0     0.673908     0.613995     0.327751    Uiso  ? Ni
   Ni52       1.0     0.786716     0.727826     0.328796    Uiso  ? Ni
   Ni53       1.0     0.673918     0.728796     0.442452    Uiso  ? Ni
   Ni54       1.0     0.787017     0.613897     0.442385    Uiso  ? Ni
   Ni55       1.0     0.330825     0.842883     0.442826    Uiso  ? Ni
   Ni56       1.0     0.445224     0.842610     0.328214    Uiso  ? Ni
   Ni57       1.0     0.559604     0.842734     0.442562    Uiso  ? Ni
   Ni58       1.0     0.330441     0.269513     0.557419    Uiso  ? Ni
   Ni59       1.0     0.216281     0.270273     0.672091    Uiso  ? Ni
   Ni60       1.0     0.444834     0.157303     0.557140    Uiso  ? Ni
   Ni61       1.0     0.559667     0.268733     0.557144    Uiso  ? Ni
   Ni62       1.0     0.445105     0.269999     0.672304    Uiso  ? Ni
   Ni63       1.0     0.559146     0.157287     0.671566    Uiso  ? Ni
   Ni64       1.0     0.673367     0.157368     0.557009    Uiso  ? Ni
   Ni65       1.0     0.787197     0.271146     0.556985    Uiso  ? Ni
   Ni66       1.0     0.673530     0.270984     0.671590    Uiso  ? Ni
   Ni67       1.0     0.101369     0.499658     0.558159    Uiso  ? Ni
   Ni68       1.0     0.215803     0.383703     0.559742    Uiso  ? Ni
   Ni69       1.0     0.328795     0.499248     0.556608    Uiso  ? Ni
   Ni70       1.0     0.214059     0.499638     0.672701    Uiso  ? Ni
   Ni71       1.0     0.330394     0.382808     0.672877    Uiso  ? Ni
   Ni72       1.0     0.443747     0.382131     0.557664    Uiso  ? Ni
   Ni73       1.0     0.562034     0.499432     0.557330    Uiso  ? Ni
   Ni74       1.0     0.446569     0.499372     0.674538    Uiso  ? Ni
   Ni75       1.0     0.560054     0.384254     0.674053    Uiso  ? Ni
   Ni76       1.0     0.675899     0.384632     0.557055    Uiso  ? Ni
   Ni77       1.0     0.787298     0.499636     0.557028    Uiso  ? Ni
   Ni78       1.0     0.674202     0.499639     0.672437    Uiso  ? Ni
   Ni79       1.0     0.787132     0.385497     0.671552    Uiso  ? Ni
   Ni80       1.0     0.899871     0.385689     0.556950    Uiso  ? Ni
   Ni81       1.0     0.900000     0.499710     0.670995    Uiso  ? Ni
   Ni82       1.0     0.215485     0.615579     0.560010    Uiso  ? Ni
   Ni83       1.0     0.330080     0.730287     0.557817    Uiso  ? Ni
   Ni84       1.0     0.216108     0.729272     0.672237    Uiso  ? Ni
   Ni85       1.0     0.330032     0.616547     0.673253    Uiso  ? Ni
   Ni86       1.0     0.443692     0.616823     0.559310    Uiso  ? Ni
   Ni87       1.0     0.559959     0.730908     0.557501    Uiso  ? Ni
   Ni88       1.0     0.445070     0.729753     0.672702    Uiso  ? Ni
   Ni89       1.0     0.560300     0.615065     0.674421    Uiso  ? Ni
   Ni90       1.0     0.676193     0.614651     0.557339    Uiso  ? Ni
   Ni91       1.0     0.787241     0.728338     0.557043    Uiso  ? Ni
   Ni92       1.0     0.673652     0.728522     0.671728    Uiso  ? Ni
   Ni93       1.0     0.787208     0.613903     0.671656    Uiso  ? Ni
   Ni94       1.0     0.899800     0.613731     0.556938    Uiso  ? Ni
   Ni95       1.0     0.444826     0.842684     0.557565    Uiso  ? Ni
   Ni96       1.0     0.559238     0.842359     0.671734    Uiso  ? Ni
   Ni97       1.0     0.673509     0.842265     0.557122    Uiso  ? Ni
   Ni98       1.0     0.330749     0.270771     0.785906    Uiso  ? Ni
   Ni99       1.0     0.559209     0.270894     0.785874    Uiso  ? Ni
   Ni100      1.0     0.786662     0.271710     0.785020    Uiso  ? Ni
   Ni101      1.0     0.330352     0.499660     0.787943    Uiso  ? Ni
   Ni102      1.0     0.445056     0.384592     0.786683    Uiso  ? Ni
   Ni103      1.0     0.559959     0.499651     0.786870    Uiso  ? Ni
   Ni104      1.0     0.445209     0.499728     0.899134    Uiso  ? Ni
   Ni105      1.0     0.559116     0.385431     0.898942    Uiso  ? Ni
   Ni106      1.0     0.673544     0.385366     0.785832    Uiso  ? Ni
   Ni107      1.0     0.786878     0.499692     0.785333    Uiso  ? Ni
   Ni108      1.0     0.673115     0.499713     0.899033    Uiso  ? Ni
   Ni109      1.0     0.330666     0.728762     0.785994    Uiso  ? Ni
   Ni110      1.0     0.445036     0.614742     0.786555    Uiso  ? Ni
   Ni111      1.0     0.559258     0.728623     0.785949    Uiso  ? Ni
   Ni112      1.0     0.559106     0.614009     0.898883    Uiso  ? Ni
   Ni113      1.0     0.673650     0.614043     0.785923    Uiso  ? Ni
   Ni114      1.0     0.786718     0.727780     0.785079    Uiso  ? Ni
   H1         1.0     0.444581     0.498957     0.557006    Uiso  ? H
   H2         1.0     0.216634     0.499743     0.327034    Uiso  ? H
   H3         1.0     0.216519     0.383839     0.443839    Uiso  ? H
   H4         1.0     0.215709     0.615479     0.443866    Uiso  ? H
   H5         1.0     0.445396     0.614824     0.441231    Uiso  ? H
   H6         1.0     0.329703     0.499772     0.672490    Uiso  ? H
   H7         1.0     0.560331     0.383739     0.557069    Uiso  ? H
   H8         1.0     0.560934     0.615509     0.557990    Uiso  ? H
