
#======================================================================
# CRYSTAL DATA
#----------------------------------------------------------------------
data_VESTA_phase_1

_chemical_name_common                  ' Ni H'
_cell_length_a                         15.513588
_cell_length_b                         15.513588
_cell_length_c                         15.513588
_cell_angle_alpha                      90.000000
_cell_angle_beta                       90.000000
_cell_angle_gamma                      90.000000
_cell_volume                           1.000000
_space_group_name_H-M_alt              'P 1'
_space_group_IT_number                 1

loop_
_space_group_symop_operation_xyz
   'x, y, z'

loop_
   _atom_site_label
   _atom_site_occupancy
   _atom_site_fract_x
   _atom_site_fract_y
   _atom_site_fract_z
   _atom_site_adp_type
   _atom_site_U_iso_or_equiv
   _atom_site_type_symbol
   Ni1        1.0     0.217501     0.270281     0.214067    Uiso  ? Ni
   Ni2        1.0     0.446292     0.270083     0.213919    Uiso  ? Ni
   Ni3        1.0     0.673915     0.271328     0.215113    Uiso  ? Ni
   Ni4        1.0     0.331947     0.499095     0.100449    Uiso  ? Ni
   Ni5        1.0     0.216608     0.499056     0.211476    Uiso  ? Ni
   Ni6        1.0     0.331822     0.383651     0.212833    Uiso  ? Ni
   Ni7        1.0     0.446321     0.384715     0.101035    Uiso  ? Ni
   Ni8        1.0     0.560706     0.499406     0.100998    Uiso  ? Ni
   Ni9        1.0     0.447176     0.499069     0.211402    Uiso  ? Ni
   Ni10       1.0     0.561168     0.384654     0.214039    Uiso  ? Ni
   Ni11       1.0     0.674598     0.499429     0.214467    Uiso  ? Ni
   Ni12       1.0     0.217193     0.729074     0.213767    Uiso  ? Ni
   Ni13       1.0     0.331872     0.614692     0.211461    Uiso  ? Ni
   Ni14       1.0     0.446634     0.614126     0.100792    Uiso  ? Ni
   Ni15       1.0     0.446669     0.729292     0.213605    Uiso  ? Ni
   Ni16       1.0     0.561622     0.614219     0.213649    Uiso  ? Ni
   Ni17       1.0     0.674054     0.727849     0.214978    Uiso  ? Ni
   Ni18       1.0     0.331709     0.269376     0.327798    Uiso  ? Ni
   Ni19       1.0     0.216657     0.268072     0.443358    Uiso  ? Ni
   Ni20       1.0     0.331620     0.156880     0.443047    Uiso  ? Ni
   Ni21       1.0     0.446106     0.157127     0.328399    Uiso  ? Ni
   Ni22       1.0     0.561149     0.269962     0.328254    Uiso  ? Ni
   Ni23       1.0     0.446631     0.267328     0.442486    Uiso  ? Ni
   Ni24       1.0     0.560582     0.156975     0.442868    Uiso  ? Ni
   Ni25       1.0     0.787288     0.271466     0.329085    Uiso  ? Ni
   Ni26       1.0     0.674787     0.270431     0.442777    Uiso  ? Ni
   Ni27       1.0     0.100440     0.499114     0.328061    Uiso  ? Ni
   Ni28       1.0     0.100611     0.384089     0.443524    Uiso  ? Ni
   Ni29       1.0     0.216189     0.381984     0.326205    Uiso  ? Ni
   Ni30       1.0     0.331457     0.497240     0.326177    Uiso  ? Ni
   Ni31       1.0     0.214627     0.498977     0.444852    Uiso  ? Ni
   Ni32       1.0     0.331124     0.382047     0.442855    Uiso  ? Ni
   Ni33       1.0     0.447350     0.381643     0.325603    Uiso  ? Ni
   Ni34       1.0     0.563813     0.499158     0.327478    Uiso  ? Ni
   Ni35       1.0     0.448010     0.498988     0.442188    Uiso  ? Ni
   Ni36       1.0     0.563760     0.383278     0.442063    Uiso  ? Ni
   Ni37       1.0     0.675061     0.384637     0.328264    Uiso  ? Ni
   Ni38       1.0     0.787250     0.499529     0.328754    Uiso  ? Ni
   Ni39       1.0     0.676041     0.499411     0.442259    Uiso  ? Ni
   Ni40       1.0     0.787381     0.385185     0.442762    Uiso  ? Ni
   Ni41       1.0     0.899901     0.499578     0.442964    Uiso  ? Ni
   Ni42       1.0     0.100000     0.614687     0.443555    Uiso  ? Ni
   Ni43       1.0     0.214488     0.616427     0.325926    Uiso  ? Ni
   Ni44       1.0     0.331775     0.731671     0.327542    Uiso  ? Ni
   Ni45       1.0     0.216031     0.731444     0.443403    Uiso  ? Ni
   Ni46       1.0     0.331153     0.616240     0.442904    Uiso  ? Ni
   Ni47       1.0     0.449165     0.616856     0.325374    Uiso  ? Ni
   Ni48       1.0     0.561686     0.729474     0.328126    Uiso  ? Ni
   Ni49       1.0     0.447423     0.732265     0.442487    Uiso  ? Ni
   Ni50       1.0     0.564482     0.615614     0.442058    Uiso  ? Ni
   Ni51       1.0     0.675041     0.614297     0.328129    Uiso  ? Ni
   Ni52       1.0     0.787261     0.727656     0.329039    Uiso  ? Ni
   Ni53       1.0     0.674962     0.728807     0.442768    Uiso  ? Ni
   Ni54       1.0     0.787276     0.613886     0.442754    Uiso  ? Ni
   Ni55       1.0     0.331677     0.843120     0.443086    Uiso  ? Ni
   Ni56       1.0     0.446614     0.842659     0.328277    Uiso  ? Ni
   Ni57       1.0     0.560963     0.842543     0.442869    Uiso  ? Ni
   Ni58       1.0     0.330766     0.269162     0.558077    Uiso  ? Ni
   Ni59       1.0     0.216622     0.269945     0.672289    Uiso  ? Ni
   Ni60       1.0     0.445920     0.156901     0.557331    Uiso  ? Ni
   Ni61       1.0     0.561441     0.269366     0.556990    Uiso  ? Ni
   Ni62       1.0     0.445683     0.267863     0.672396    Uiso  ? Ni
   Ni63       1.0     0.560295     0.157382     0.671281    Uiso  ? Ni
   Ni64       1.0     0.674052     0.157480     0.557028    Uiso  ? Ni
   Ni65       1.0     0.787495     0.271241     0.556933    Uiso  ? Ni
   Ni66       1.0     0.674797     0.270433     0.671273    Uiso  ? Ni
   Ni67       1.0     0.101869     0.499059     0.558942    Uiso  ? Ni
   Ni68       1.0     0.215389     0.383232     0.560240    Uiso  ? Ni
   Ni69       1.0     0.328667     0.497198     0.559266    Uiso  ? Ni
   Ni70       1.0     0.215517     0.499053     0.673382    Uiso  ? Ni
   Ni71       1.0     0.328639     0.383230     0.673497    Uiso  ? Ni
   Ni72       1.0     0.446602     0.381235     0.557846    Uiso  ? Ni
   Ni73       1.0     0.564357     0.499160     0.555870    Uiso  ? Ni
   Ni74       1.0     0.444505     0.499230     0.674846    Uiso  ? Ni
   Ni75       1.0     0.563008     0.382511     0.672268    Uiso  ? Ni
   Ni76       1.0     0.675775     0.384206     0.556864    Uiso  ? Ni
   Ni77       1.0     0.787615     0.499539     0.556702    Uiso  ? Ni
   Ni78       1.0     0.677218     0.499471     0.671787    Uiso  ? Ni
   Ni79       1.0     0.787678     0.384988     0.671113    Uiso  ? Ni
   Ni80       1.0     0.900000     0.385672     0.556855    Uiso  ? Ni
   Ni81       1.0     0.899867     0.499573     0.670732    Uiso  ? Ni
   Ni82       1.0     0.213823     0.615077     0.560494    Uiso  ? Ni
   Ni83       1.0     0.330900     0.731761     0.558393    Uiso  ? Ni
   Ni84       1.0     0.216347     0.729346     0.672590    Uiso  ? Ni
   Ni85       1.0     0.328703     0.615149     0.674856    Uiso  ? Ni
   Ni86       1.0     0.448532     0.617364     0.558126    Uiso  ? Ni
   Ni87       1.0     0.562018     0.730123     0.557120    Uiso  ? Ni
   Ni88       1.0     0.446107     0.731490     0.672773    Uiso  ? Ni
   Ni89       1.0     0.563529     0.616508     0.672666    Uiso  ? Ni
   Ni90       1.0     0.675759     0.614758     0.556971    Uiso  ? Ni
   Ni91       1.0     0.787474     0.727896     0.556963    Uiso  ? Ni
   Ni92       1.0     0.674972     0.728804     0.671405    Uiso  ? Ni
   Ni93       1.0     0.787659     0.614109     0.671151    Uiso  ? Ni
   Ni94       1.0     0.899958     0.613476     0.556852    Uiso  ? Ni
   Ni95       1.0     0.446429     0.842843     0.557483    Uiso  ? Ni
   Ni96       1.0     0.560535     0.842003     0.671457    Uiso  ? Ni
   Ni97       1.0     0.674294     0.841914     0.557096    Uiso  ? Ni
   Ni98       1.0     0.331058     0.270478     0.785981    Uiso  ? Ni
   Ni99       1.0     0.560273     0.270532     0.785900    Uiso  ? Ni
   Ni100      1.0     0.787209     0.271621     0.784805    Uiso  ? Ni
   Ni101      1.0     0.329943     0.499134     0.787193    Uiso  ? Ni
   Ni102      1.0     0.445501     0.384043     0.788501    Uiso  ? Ni
   Ni103      1.0     0.561101     0.499479     0.788273    Uiso  ? Ni
   Ni104      1.0     0.445301     0.499473     0.899551    Uiso  ? Ni
   Ni105      1.0     0.560147     0.385008     0.899418    Uiso  ? Ni
   Ni106      1.0     0.674712     0.384965     0.785870    Uiso  ? Ni
   Ni107      1.0     0.787738     0.499538     0.785374    Uiso  ? Ni
   Ni108      1.0     0.674196     0.499527     0.899175    Uiso  ? Ni
   Ni109      1.0     0.331076     0.728836     0.786244    Uiso  ? Ni
   Ni110      1.0     0.445771     0.614906     0.788797    Uiso  ? Ni
   Ni111      1.0     0.560455     0.728682     0.786075    Uiso  ? Ni
   Ni112      1.0     0.560259     0.614072     0.899489    Uiso  ? Ni
   Ni113      1.0     0.674870     0.614118     0.786032    Uiso  ? Ni
   Ni114      1.0     0.787278     0.727556     0.784878    Uiso  ? Ni
   H1         1.0     0.446066     0.498869     0.557480    Uiso  ? H
   H2         1.0     0.215889     0.498759     0.327332    Uiso  ? H
   H3         1.0     0.216529     0.383561     0.443903    Uiso  ? H
   H4         1.0     0.447780     0.498846     0.326093    Uiso  ? H
   H5         1.0     0.447061     0.382562     0.441889    Uiso  ? H
   H6         1.0     0.331762     0.615302     0.326535    Uiso  ? H
   H7         1.0     0.214887     0.615403     0.443505    Uiso  ? H
   H8         1.0     0.448561     0.616336     0.442133    Uiso  ? H
   H9         1.0     0.445236     0.382861     0.673487    Uiso  ? H
   H10        1.0     0.562242     0.499479     0.672452    Uiso  ? H
   H11        1.0     0.330327     0.614544     0.558902    Uiso  ? H
   H12        1.0     0.446199     0.616128     0.674352    Uiso  ? H
