
#======================================================================
# CRYSTAL DATA
#----------------------------------------------------------------------
data_VESTA_phase_1

_chemical_name_common                  ' Ni H'
_cell_length_a                         15.534303
_cell_length_b                         15.534303
_cell_length_c                         15.534303
_cell_angle_alpha                      90.000000
_cell_angle_beta                       90.000000
_cell_angle_gamma                      90.000000
_cell_volume                           1.000000
_space_group_name_H-M_alt              'P 1'
_space_group_IT_number                 1

loop_
_space_group_symop_operation_xyz
   'x, y, z'

loop_
   _atom_site_label
   _atom_site_occupancy
   _atom_site_fract_x
   _atom_site_fract_y
   _atom_site_fract_z
   _atom_site_adp_type
   _atom_site_U_iso_or_equiv
   _atom_site_type_symbol
   Ni1        1.0     0.217452     0.270652     0.214051    Uiso  ? Ni
   Ni2        1.0     0.446960     0.270412     0.213850    Uiso  ? Ni
   Ni3        1.0     0.674439     0.272011     0.215373    Uiso  ? Ni
   Ni4        1.0     0.332222     0.500438     0.100721    Uiso  ? Ni
   Ni5        1.0     0.216500     0.500472     0.211559    Uiso  ? Ni
   Ni6        1.0     0.332078     0.384618     0.211399    Uiso  ? Ni
   Ni7        1.0     0.447015     0.385606     0.101294    Uiso  ? Ni
   Ni8        1.0     0.561190     0.500430     0.101595    Uiso  ? Ni
   Ni9        1.0     0.447690     0.500519     0.211211    Uiso  ? Ni
   Ni10       1.0     0.562051     0.385274     0.213752    Uiso  ? Ni
   Ni11       1.0     0.675343     0.500550     0.214419    Uiso  ? Ni
   Ni12       1.0     0.217655     0.729993     0.214311    Uiso  ? Ni
   Ni13       1.0     0.332215     0.616282     0.211617    Uiso  ? Ni
   Ni14       1.0     0.446981     0.615219     0.101238    Uiso  ? Ni
   Ni15       1.0     0.446971     0.730226     0.214077    Uiso  ? Ni
   Ni16       1.0     0.561904     0.615702     0.213758    Uiso  ? Ni
   Ni17       1.0     0.674264     0.728723     0.215572    Uiso  ? Ni
   Ni18       1.0     0.331954     0.267848     0.327566    Uiso  ? Ni
   Ni19       1.0     0.216101     0.267837     0.443429    Uiso  ? Ni
   Ni20       1.0     0.331877     0.156742     0.443326    Uiso  ? Ni
   Ni21       1.0     0.446875     0.157285     0.328550    Uiso  ? Ni
   Ni22       1.0     0.562045     0.269879     0.327967    Uiso  ? Ni
   Ni23       1.0     0.447327     0.267077     0.442611    Uiso  ? Ni
   Ni24       1.0     0.561267     0.157371     0.443113    Uiso  ? Ni
   Ni25       1.0     0.787576     0.272267     0.329460    Uiso  ? Ni
   Ni26       1.0     0.675758     0.270691     0.443127    Uiso  ? Ni
   Ni27       1.0     0.100166     0.500491     0.328027    Uiso  ? Ni
   Ni28       1.0     0.100000     0.384681     0.443570    Uiso  ? Ni
   Ni29       1.0     0.214406     0.382742     0.325859    Uiso  ? Ni
   Ni30       1.0     0.331743     0.500747     0.325796    Uiso  ? Ni
   Ni31       1.0     0.214442     0.500801     0.443473    Uiso  ? Ni
   Ni32       1.0     0.331072     0.382024     0.442771    Uiso  ? Ni
   Ni33       1.0     0.449186     0.382399     0.325164    Uiso  ? Ni
   Ni34       1.0     0.564501     0.500824     0.325764    Uiso  ? Ni
   Ni35       1.0     0.447354     0.501362     0.442818    Uiso  ? Ni
   Ni36       1.0     0.564744     0.383004     0.441226    Uiso  ? Ni
   Ni37       1.0     0.675957     0.385389     0.327998    Uiso  ? Ni
   Ni38       1.0     0.787673     0.500615     0.328976    Uiso  ? Ni
   Ni39       1.0     0.678079     0.501033     0.443114    Uiso  ? Ni
   Ni40       1.0     0.788015     0.385961     0.443133    Uiso  ? Ni
   Ni41       1.0     0.899543     0.500562     0.443659    Uiso  ? Ni
   Ni42       1.0     0.100469     0.616308     0.443995    Uiso  ? Ni
   Ni43       1.0     0.214918     0.618160     0.326503    Uiso  ? Ni
   Ni44       1.0     0.332208     0.732563     0.328301    Uiso  ? Ni
   Ni45       1.0     0.216720     0.732619     0.444066    Uiso  ? Ni
   Ni46       1.0     0.331772     0.619407     0.445081    Uiso  ? Ni
   Ni47       1.0     0.449285     0.618640     0.325965    Uiso  ? Ni
   Ni48       1.0     0.561903     0.730572     0.328652    Uiso  ? Ni
   Ni49       1.0     0.447453     0.733005     0.443935    Uiso  ? Ni
   Ni50       1.0     0.564222     0.618517     0.443547    Uiso  ? Ni
   Ni51       1.0     0.675444     0.615725     0.328612    Uiso  ? Ni
   Ni52       1.0     0.787368     0.728495     0.329709    Uiso  ? Ni
   Ni53       1.0     0.675312     0.729836     0.443699    Uiso  ? Ni
   Ni54       1.0     0.787714     0.615255     0.443585    Uiso  ? Ni
   Ni55       1.0     0.332207     0.843258     0.444094    Uiso  ? Ni
   Ni56       1.0     0.446929     0.842963     0.329132    Uiso  ? Ni
   Ni57       1.0     0.561097     0.842635     0.443858    Uiso  ? Ni
   Ni58       1.0     0.331145     0.267145     0.558801    Uiso  ? Ni
   Ni59       1.0     0.216611     0.270003     0.673409    Uiso  ? Ni
   Ni60       1.0     0.446567     0.156839     0.558017    Uiso  ? Ni
   Ni61       1.0     0.562281     0.268304     0.558210    Uiso  ? Ni
   Ni62       1.0     0.446727     0.268291     0.673755    Uiso  ? Ni
   Ni63       1.0     0.560866     0.157581     0.672306    Uiso  ? Ni
   Ni64       1.0     0.674805     0.157898     0.557693    Uiso  ? Ni
   Ni65       1.0     0.787880     0.271967     0.557681    Uiso  ? Ni
   Ni66       1.0     0.675103     0.271451     0.672288    Uiso  ? Ni
   Ni67       1.0     0.100076     0.500838     0.559157    Uiso  ? Ni
   Ni68       1.0     0.213985     0.382794     0.560650    Uiso  ? Ni
   Ni69       1.0     0.331132     0.503113     0.559138    Uiso  ? Ni
   Ni70       1.0     0.214573     0.501246     0.675698    Uiso  ? Ni
   Ni71       1.0     0.329773     0.383438     0.675942    Uiso  ? Ni
   Ni72       1.0     0.447518     0.382330     0.559238    Uiso  ? Ni
   Ni73       1.0     0.564742     0.503173     0.560454    Uiso  ? Ni
   Ni74       1.0     0.448689     0.503235     0.676260    Uiso  ? Ni
   Ni75       1.0     0.563868     0.385385     0.675345    Uiso  ? Ni
   Ni76       1.0     0.677781     0.385606     0.558256    Uiso  ? Ni
   Ni77       1.0     0.787975     0.501033     0.558193    Uiso  ? Ni
   Ni78       1.0     0.675877     0.501381     0.673331    Uiso  ? Ni
   Ni79       1.0     0.787693     0.386492     0.672182    Uiso  ? Ni
   Ni80       1.0     0.899651     0.386704     0.557537    Uiso  ? Ni
   Ni81       1.0     0.900000     0.500563     0.671384    Uiso  ? Ni
   Ni82       1.0     0.215738     0.618811     0.561138    Uiso  ? Ni
   Ni83       1.0     0.332002     0.731656     0.559409    Uiso  ? Ni
   Ni84       1.0     0.217346     0.730404     0.673218    Uiso  ? Ni
   Ni85       1.0     0.331749     0.618712     0.674372    Uiso  ? Ni
   Ni86       1.0     0.447890     0.619763     0.561173    Uiso  ? Ni
   Ni87       1.0     0.561821     0.730422     0.558809    Uiso  ? Ni
   Ni88       1.0     0.446972     0.730492     0.673440    Uiso  ? Ni
   Ni89       1.0     0.562299     0.616976     0.673859    Uiso  ? Ni
   Ni90       1.0     0.676074     0.616338     0.558663    Uiso  ? Ni
   Ni91       1.0     0.787619     0.728697     0.557793    Uiso  ? Ni
   Ni92       1.0     0.674579     0.729062     0.672109    Uiso  ? Ni
   Ni93       1.0     0.787627     0.614877     0.671915    Uiso  ? Ni
   Ni94       1.0     0.899966     0.614417     0.557547    Uiso  ? Ni
   Ni95       1.0     0.446703     0.842644     0.558603    Uiso  ? Ni
   Ni96       1.0     0.560489     0.842215     0.672013    Uiso  ? Ni
   Ni97       1.0     0.674229     0.842158     0.557884    Uiso  ? Ni
   Ni98       1.0     0.331680     0.270833     0.787053    Uiso  ? Ni
   Ni99       1.0     0.560836     0.271459     0.786534    Uiso  ? Ni
   Ni100      1.0     0.787261     0.272719     0.785214    Uiso  ? Ni
   Ni101      1.0     0.331623     0.501376     0.789228    Uiso  ? Ni
   Ni102      1.0     0.446750     0.385658     0.789207    Uiso  ? Ni
   Ni103      1.0     0.561809     0.501414     0.787245    Uiso  ? Ni
   Ni104      1.0     0.446683     0.501134     0.899279    Uiso  ? Ni
   Ni105      1.0     0.560714     0.386531     0.899076    Uiso  ? Ni
   Ni106      1.0     0.675104     0.386414     0.786541    Uiso  ? Ni
   Ni107      1.0     0.787517     0.500712     0.785554    Uiso  ? Ni
   Ni108      1.0     0.674085     0.500736     0.898895    Uiso  ? Ni
   Ni109      1.0     0.332154     0.729590     0.786418    Uiso  ? Ni
   Ni110      1.0     0.446844     0.616395     0.787075    Uiso  ? Ni
   Ni111      1.0     0.560577     0.729057     0.785971    Uiso  ? Ni
   Ni112      1.0     0.560333     0.614893     0.898885    Uiso  ? Ni
   Ni113      1.0     0.674489     0.615048     0.785911    Uiso  ? Ni
   Ni114      1.0     0.787166     0.728152     0.785091    Uiso  ? Ni
   H1         1.0     0.447438     0.502163     0.559398    Uiso  ? H
   H2         1.0     0.331750     0.383882     0.326525    Uiso  ? H
   H3         1.0     0.215433     0.500524     0.327017    Uiso  ? H
   H4         1.0     0.214945     0.383872     0.443219    Uiso  ? H
   H5         1.0     0.448226     0.500558     0.326113    Uiso  ? H
   H6         1.0     0.447593     0.383464     0.442217    Uiso  ? H
   H7         1.0     0.564280     0.501172     0.442657    Uiso  ? H
   H8         1.0     0.332092     0.617039     0.327652    Uiso  ? H
   H9         1.0     0.216215     0.617086     0.444274    Uiso  ? H
   H10        1.0     0.447603     0.617913     0.444006    Uiso  ? H
   H11        1.0     0.330761     0.384162     0.558977    Uiso  ? H
   H12        1.0     0.215066     0.501088     0.559608    Uiso  ? H
   H13        1.0     0.331251     0.501981     0.675313    Uiso  ? H
   H14        1.0     0.563761     0.384954     0.558763    Uiso  ? H
   H15        1.0     0.447261     0.384938     0.675369    Uiso  ? H
