
#======================================================================
# CRYSTAL DATA
#----------------------------------------------------------------------
data_VESTA_phase_1

_chemical_name_common                  ' Ni H'
_cell_length_a                         15.469874
_cell_length_b                         15.469874
_cell_length_c                         15.469874
_cell_angle_alpha                      90.000000
_cell_angle_beta                       90.000000
_cell_angle_gamma                      90.000000
_cell_volume                           1.000000
_space_group_name_H-M_alt              'P 1'
_space_group_IT_number                 1

loop_
_space_group_symop_operation_xyz
   'x, y, z'

loop_
   _atom_site_label
   _atom_site_occupancy
   _atom_site_fract_x
   _atom_site_fract_y
   _atom_site_fract_z
   _atom_site_adp_type
   _atom_site_U_iso_or_equiv
   _atom_site_type_symbol
   Ni1        1.0     0.216536     0.272022     0.214281    Uiso  ? Ni
   Ni2        1.0     0.444543     0.271893     0.214211    Uiso  ? Ni
   Ni3        1.0     0.672653     0.272089     0.214311    Uiso  ? Ni
   Ni4        1.0     0.330492     0.500225     0.100928    Uiso  ? Ni
   Ni5        1.0     0.216365     0.500255     0.214347    Uiso  ? Ni
   Ni6        1.0     0.330433     0.385962     0.214265    Uiso  ? Ni
   Ni7        1.0     0.444502     0.386196     0.100886    Uiso  ? Ni
   Ni8        1.0     0.558513     0.500224     0.101005    Uiso  ? Ni
   Ni9        1.0     0.444301     0.500241     0.214053    Uiso  ? Ni
   Ni10       1.0     0.558703     0.385709     0.213931    Uiso  ? Ni
   Ni11       1.0     0.673102     0.500254     0.213861    Uiso  ? Ni
   Ni12       1.0     0.216570     0.728428     0.214302    Uiso  ? Ni
   Ni13       1.0     0.330429     0.614536     0.214206    Uiso  ? Ni
   Ni14       1.0     0.444503     0.614255     0.100861    Uiso  ? Ni
   Ni15       1.0     0.444547     0.728593     0.214147    Uiso  ? Ni
   Ni16       1.0     0.558710     0.614785     0.213874    Uiso  ? Ni
   Ni17       1.0     0.672618     0.728359     0.214335    Uiso  ? Ni
   Ni18       1.0     0.330358     0.271506     0.327658    Uiso  ? Ni
   Ni19       1.0     0.216080     0.271182     0.441432    Uiso  ? Ni
   Ni20       1.0     0.330368     0.157795     0.441819    Uiso  ? Ni
   Ni21       1.0     0.444602     0.157919     0.327917    Uiso  ? Ni
   Ni22       1.0     0.558867     0.271424     0.327584    Uiso  ? Ni
   Ni23       1.0     0.444483     0.270562     0.441099    Uiso  ? Ni
   Ni24       1.0     0.558870     0.158085     0.441986    Uiso  ? Ni
   Ni25       1.0     0.786589     0.272092     0.328228    Uiso  ? Ni
   Ni26       1.0     0.673326     0.271440     0.441995    Uiso  ? Ni
   Ni27       1.0     0.102095     0.500274     0.327557    Uiso  ? Ni
   Ni28       1.0     0.102022     0.385675     0.441508    Uiso  ? Ni
   Ni29       1.0     0.216156     0.385565     0.327382    Uiso  ? Ni
   Ni30       1.0     0.330004     0.500320     0.326845    Uiso  ? Ni
   Ni31       1.0     0.215705     0.500337     0.439231    Uiso  ? Ni
   Ni32       1.0     0.329734     0.384631     0.440463    Uiso  ? Ni
   Ni33       1.0     0.444433     0.385220     0.327211    Uiso  ? Ni
   Ni34       1.0     0.559249     0.500310     0.325443    Uiso  ? Ni
   Ni35       1.0     0.443371     0.500617     0.438900    Uiso  ? Ni
   Ni36       1.0     0.559664     0.383658     0.441152    Uiso  ? Ni
   Ni37       1.0     0.673274     0.385727     0.327626    Uiso  ? Ni
   Ni38       1.0     0.787002     0.500278     0.327795    Uiso  ? Ni
   Ni39       1.0     0.675387     0.500351     0.441687    Uiso  ? Ni
   Ni40       1.0     0.787020     0.385760     0.442131    Uiso  ? Ni
   Ni41       1.0     0.899848     0.500260     0.442417    Uiso  ? Ni
   Ni42       1.0     0.102116     0.614846     0.441632    Uiso  ? Ni
   Ni43       1.0     0.216270     0.614965     0.327471    Uiso  ? Ni
   Ni44       1.0     0.330427     0.728918     0.327733    Uiso  ? Ni
   Ni45       1.0     0.216227     0.729203     0.441603    Uiso  ? Ni
   Ni46       1.0     0.330047     0.616028     0.440814    Uiso  ? Ni
   Ni47       1.0     0.444439     0.615393     0.327066    Uiso  ? Ni
   Ni48       1.0     0.558804     0.728984     0.327673    Uiso  ? Ni
   Ni49       1.0     0.444497     0.729604     0.441512    Uiso  ? Ni
   Ni50       1.0     0.559324     0.616931     0.441548    Uiso  ? Ni
   Ni51       1.0     0.673153     0.614800     0.327725    Uiso  ? Ni
   Ni52       1.0     0.786528     0.728351     0.328289    Uiso  ? Ni
   Ni53       1.0     0.673182     0.728960     0.442135    Uiso  ? Ni
   Ni54       1.0     0.786955     0.614788     0.442233    Uiso  ? Ni
   Ni55       1.0     0.330491     0.842445     0.442023    Uiso  ? Ni
   Ni56       1.0     0.444607     0.842366     0.328058    Uiso  ? Ni
   Ni57       1.0     0.558763     0.842176     0.442175    Uiso  ? Ni
   Ni58       1.0     0.330054     0.270297     0.555576    Uiso  ? Ni
   Ni59       1.0     0.215543     0.270715     0.670812    Uiso  ? Ni
   Ni60       1.0     0.444748     0.157673     0.555866    Uiso  ? Ni
   Ni61       1.0     0.559681     0.270631     0.556197    Uiso  ? Ni
   Ni62       1.0     0.445024     0.269078     0.670869    Uiso  ? Ni
   Ni63       1.0     0.559250     0.157555     0.670522    Uiso  ? Ni
   Ni64       1.0     0.672968     0.157946     0.556250    Uiso  ? Ni
   Ni65       1.0     0.786705     0.271906     0.556347    Uiso  ? Ni
   Ni66       1.0     0.673425     0.271388     0.670589    Uiso  ? Ni
   Ni67       1.0     0.100000     0.500308     0.555853    Uiso  ? Ni
   Ni68       1.0     0.215210     0.383390     0.555535    Uiso  ? Ni
   Ni69       1.0     0.329896     0.500702     0.554322    Uiso  ? Ni
   Ni70       1.0     0.213586     0.500628     0.672791    Uiso  ? Ni
   Ni71       1.0     0.328490     0.383467     0.671284    Uiso  ? Ni
   Ni72       1.0     0.445099     0.383197     0.554227    Uiso  ? Ni
   Ni73       1.0     0.561606     0.500710     0.557675    Uiso  ? Ni
   Ni74       1.0     0.446780     0.502361     0.673221    Uiso  ? Ni
   Ni75       1.0     0.561591     0.385062     0.671295    Uiso  ? Ni
   Ni76       1.0     0.673965     0.385354     0.556261    Uiso  ? Ni
   Ni77       1.0     0.786773     0.500342     0.556707    Uiso  ? Ni
   Ni78       1.0     0.673875     0.500684     0.671298    Uiso  ? Ni
   Ni79       1.0     0.786456     0.386091     0.670564    Uiso  ? Ni
   Ni80       1.0     0.899926     0.386243     0.556442    Uiso  ? Ni
   Ni81       1.0     0.899949     0.500254     0.670429    Uiso  ? Ni
   Ni82       1.0     0.215557     0.617200     0.555893    Uiso  ? Ni
   Ni83       1.0     0.330396     0.729860     0.555956    Uiso  ? Ni
   Ni84       1.0     0.215918     0.729477     0.670848    Uiso  ? Ni
   Ni85       1.0     0.330145     0.617584     0.671337    Uiso  ? Ni
   Ni86       1.0     0.445123     0.617824     0.555983    Uiso  ? Ni
   Ni87       1.0     0.559386     0.729557     0.556544    Uiso  ? Ni
   Ni88       1.0     0.445114     0.729463     0.671007    Uiso  ? Ni
   Ni89       1.0     0.560036     0.616062     0.671331    Uiso  ? Ni
   Ni90       1.0     0.673675     0.615353     0.556572    Uiso  ? Ni
   Ni91       1.0     0.786669     0.728555     0.556406    Uiso  ? Ni
   Ni92       1.0     0.673097     0.728852     0.670617    Uiso  ? Ni
   Ni93       1.0     0.786641     0.614582     0.670571    Uiso  ? Ni
   Ni94       1.0     0.900000     0.614277     0.556432    Uiso  ? Ni
   Ni95       1.0     0.444767     0.842204     0.556324    Uiso  ? Ni
   Ni96       1.0     0.558863     0.842360     0.670556    Uiso  ? Ni
   Ni97       1.0     0.672805     0.842327     0.556366    Uiso  ? Ni
   Ni98       1.0     0.330200     0.271041     0.785428    Uiso  ? Ni
   Ni99       1.0     0.559293     0.271400     0.785074    Uiso  ? Ni
   Ni100      1.0     0.786521     0.272141     0.784419    Uiso  ? Ni
   Ni101      1.0     0.330114     0.500703     0.787758    Uiso  ? Ni
   Ni102      1.0     0.445127     0.385375     0.787338    Uiso  ? Ni
   Ni103      1.0     0.560091     0.500704     0.785721    Uiso  ? Ni
   Ni104      1.0     0.445203     0.500692     0.899139    Uiso  ? Ni
   Ni105      1.0     0.559314     0.386072     0.898895    Uiso  ? Ni
   Ni106      1.0     0.673389     0.385997     0.785062    Uiso  ? Ni
   Ni107      1.0     0.786626     0.500350     0.784607    Uiso  ? Ni
   Ni108      1.0     0.673000     0.500386     0.898581    Uiso  ? Ni
   Ni109      1.0     0.330520     0.729191     0.785175    Uiso  ? Ni
   Ni110      1.0     0.445153     0.615791     0.785880    Uiso  ? Ni
   Ni111      1.0     0.559037     0.728859     0.784832    Uiso  ? Ni
   Ni112      1.0     0.559039     0.614669     0.898613    Uiso  ? Ni
   Ni113      1.0     0.673082     0.614739     0.784778    Uiso  ? Ni
   Ni114      1.0     0.786493     0.728335     0.784378    Uiso  ? Ni
   H1         1.0     0.445405     0.501177     0.555642    Uiso  ? H
   H2         1.0     0.560106     0.500197     0.440927    Uiso  ? H
   H3         1.0     0.214560     0.500197     0.555424    Uiso  ? H
   H4         1.0     0.329632     0.501145     0.672293    Uiso  ? H
   H5         1.0     0.445597     0.384639     0.671180    Uiso  ? H
