
#======================================================================
# CRYSTAL DATA
#----------------------------------------------------------------------
data_VESTA_phase_1

_chemical_name_common                  ' Ni H'
_cell_length_a                         15.500789
_cell_length_b                         15.500789
_cell_length_c                         15.500789
_cell_angle_alpha                      90.000000
_cell_angle_beta                       90.000000
_cell_angle_gamma                      90.000000
_cell_volume                           1.000000
_space_group_name_H-M_alt              'P 1'
_space_group_IT_number                 1

loop_
_space_group_symop_operation_xyz
   'x, y, z'

loop_
   _atom_site_label
   _atom_site_occupancy
   _atom_site_fract_x
   _atom_site_fract_y
   _atom_site_fract_z
   _atom_site_adp_type
   _atom_site_U_iso_or_equiv
   _atom_site_type_symbol
   Ni1        1.0     0.217106     0.270895     0.214107    Uiso  ? Ni
   Ni2        1.0     0.445569     0.271196     0.214428    Uiso  ? Ni
   Ni3        1.0     0.673226     0.271812     0.215006    Uiso  ? Ni
   Ni4        1.0     0.331655     0.499715     0.100844    Uiso  ? Ni
   Ni5        1.0     0.216558     0.500052     0.212047    Uiso  ? Ni
   Ni6        1.0     0.331749     0.384760     0.213579    Uiso  ? Ni
   Ni7        1.0     0.445591     0.385713     0.101416    Uiso  ? Ni
   Ni8        1.0     0.559485     0.499988     0.101671    Uiso  ? Ni
   Ni9        1.0     0.446002     0.499780     0.213595    Uiso  ? Ni
   Ni10       1.0     0.559771     0.385183     0.214264    Uiso  ? Ni
   Ni11       1.0     0.673700     0.499996     0.214483    Uiso  ? Ni
   Ni12       1.0     0.216795     0.729190     0.214251    Uiso  ? Ni
   Ni13       1.0     0.331442     0.614977     0.212335    Uiso  ? Ni
   Ni14       1.0     0.445781     0.614267     0.101179    Uiso  ? Ni
   Ni15       1.0     0.445643     0.729064     0.214418    Uiso  ? Ni
   Ni16       1.0     0.559926     0.614799     0.214200    Uiso  ? Ni
   Ni17       1.0     0.673233     0.728317     0.215014    Uiso  ? Ni
   Ni18       1.0     0.331691     0.270209     0.327592    Uiso  ? Ni
   Ni19       1.0     0.216473     0.268514     0.442683    Uiso  ? Ni
   Ni20       1.0     0.331407     0.157078     0.442571    Uiso  ? Ni
   Ni21       1.0     0.445480     0.157578     0.328462    Uiso  ? Ni
   Ni22       1.0     0.559786     0.270520     0.327733    Uiso  ? Ni
   Ni23       1.0     0.445701     0.269370     0.441828    Uiso  ? Ni
   Ni24       1.0     0.559600     0.157539     0.442555    Uiso  ? Ni
   Ni25       1.0     0.786843     0.271924     0.328933    Uiso  ? Ni
   Ni26       1.0     0.674032     0.270902     0.442520    Uiso  ? Ni
   Ni27       1.0     0.100042     0.500201     0.328104    Uiso  ? Ni
   Ni28       1.0     0.100090     0.385056     0.442858    Uiso  ? Ni
   Ni29       1.0     0.216282     0.383061     0.325980    Uiso  ? Ni
   Ni30       1.0     0.332749     0.498585     0.326368    Uiso  ? Ni
   Ni31       1.0     0.215645     0.501993     0.442673    Uiso  ? Ni
   Ni32       1.0     0.332543     0.383433     0.440611    Uiso  ? Ni
   Ni33       1.0     0.446251     0.383989     0.326541    Uiso  ? Ni
   Ni34       1.0     0.560314     0.499745     0.325459    Uiso  ? Ni
   Ni35       1.0     0.444576     0.500168     0.440035    Uiso  ? Ni
   Ni36       1.0     0.560307     0.382923     0.440140    Uiso  ? Ni
   Ni37       1.0     0.674074     0.385279     0.327860    Uiso  ? Ni
   Ni38       1.0     0.787318     0.500025     0.328323    Uiso  ? Ni
   Ni39       1.0     0.676334     0.499967     0.441809    Uiso  ? Ni
   Ni40       1.0     0.787597     0.385439     0.442517    Uiso  ? Ni
   Ni41       1.0     0.899796     0.500036     0.443003    Uiso  ? Ni
   Ni42       1.0     0.101514     0.615684     0.443345    Uiso  ? Ni
   Ni43       1.0     0.214708     0.617201     0.327832    Uiso  ? Ni
   Ni44       1.0     0.331206     0.731282     0.328355    Uiso  ? Ni
   Ni45       1.0     0.216129     0.730000     0.443191    Uiso  ? Ni
   Ni46       1.0     0.330397     0.617046     0.443655    Uiso  ? Ni
   Ni47       1.0     0.447274     0.615794     0.327261    Uiso  ? Ni
   Ni48       1.0     0.560019     0.729832     0.327861    Uiso  ? Ni
   Ni49       1.0     0.445291     0.730789     0.442102    Uiso  ? Ni
   Ni50       1.0     0.560844     0.617255     0.440355    Uiso  ? Ni
   Ni51       1.0     0.674024     0.614716     0.327838    Uiso  ? Ni
   Ni52       1.0     0.786850     0.728184     0.328890    Uiso  ? Ni
   Ni53       1.0     0.674250     0.729340     0.442494    Uiso  ? Ni
   Ni54       1.0     0.787651     0.614615     0.442419    Uiso  ? Ni
   Ni55       1.0     0.330831     0.842781     0.443219    Uiso  ? Ni
   Ni56       1.0     0.445571     0.842865     0.328636    Uiso  ? Ni
   Ni57       1.0     0.559572     0.842646     0.442579    Uiso  ? Ni
   Ni58       1.0     0.330901     0.267989     0.557885    Uiso  ? Ni
   Ni59       1.0     0.216431     0.270365     0.672732    Uiso  ? Ni
   Ni60       1.0     0.445444     0.157224     0.557378    Uiso  ? Ni
   Ni61       1.0     0.560277     0.268462     0.557544    Uiso  ? Ni
   Ni62       1.0     0.445384     0.270321     0.672884    Uiso  ? Ni
   Ni63       1.0     0.559398     0.157626     0.671847    Uiso  ? Ni
   Ni64       1.0     0.673666     0.157650     0.557176    Uiso  ? Ni
   Ni65       1.0     0.787362     0.271395     0.557139    Uiso  ? Ni
   Ni66       1.0     0.673835     0.271206     0.671840    Uiso  ? Ni
   Ni67       1.0     0.100000     0.500753     0.558202    Uiso  ? Ni
   Ni68       1.0     0.214370     0.383138     0.559742    Uiso  ? Ni
   Ni69       1.0     0.330334     0.501677     0.558711    Uiso  ? Ni
   Ni70       1.0     0.215560     0.500388     0.674769    Uiso  ? Ni
   Ni71       1.0     0.330457     0.384284     0.675092    Uiso  ? Ni
   Ni72       1.0     0.445626     0.382230     0.557931    Uiso  ? Ni
   Ni73       1.0     0.562312     0.500070     0.559014    Uiso  ? Ni
   Ni74       1.0     0.445221     0.498402     0.675296    Uiso  ? Ni
   Ni75       1.0     0.560596     0.384261     0.674811    Uiso  ? Ni
   Ni76       1.0     0.676377     0.384665     0.557474    Uiso  ? Ni
   Ni77       1.0     0.787811     0.499979     0.557420    Uiso  ? Ni
   Ni78       1.0     0.675151     0.499725     0.672930    Uiso  ? Ni
   Ni79       1.0     0.787426     0.385659     0.671743    Uiso  ? Ni
   Ni80       1.0     0.899863     0.385978     0.557083    Uiso  ? Ni
   Ni81       1.0     0.900000     0.500038     0.671146    Uiso  ? Ni
   Ni82       1.0     0.215368     0.617972     0.558220    Uiso  ? Ni
   Ni83       1.0     0.330140     0.730728     0.557635    Uiso  ? Ni
   Ni84       1.0     0.216265     0.729627     0.672167    Uiso  ? Ni
   Ni85       1.0     0.328575     0.615937     0.673169    Uiso  ? Ni
   Ni86       1.0     0.444051     0.618080     0.556260    Uiso  ? Ni
   Ni87       1.0     0.560318     0.731759     0.557259    Uiso  ? Ni
   Ni88       1.0     0.444953     0.731375     0.672382    Uiso  ? Ni
   Ni89       1.0     0.561805     0.615493     0.674516    Uiso  ? Ni
   Ni90       1.0     0.676790     0.615412     0.557316    Uiso  ? Ni
   Ni91       1.0     0.787491     0.728777     0.557117    Uiso  ? Ni
   Ni92       1.0     0.674143     0.729150     0.671796    Uiso  ? Ni
   Ni93       1.0     0.787338     0.614313     0.671778    Uiso  ? Ni
   Ni94       1.0     0.899810     0.614093     0.557089    Uiso  ? Ni
   Ni95       1.0     0.444953     0.842922     0.557030    Uiso  ? Ni
   Ni96       1.0     0.559602     0.842851     0.671729    Uiso  ? Ni
   Ni97       1.0     0.673765     0.842564     0.557115    Uiso  ? Ni
   Ni98       1.0     0.330970     0.271037     0.786201    Uiso  ? Ni
   Ni99       1.0     0.559488     0.271139     0.786117    Uiso  ? Ni
   Ni100      1.0     0.786793     0.272045     0.785078    Uiso  ? Ni
   Ni101      1.0     0.330416     0.500100     0.787117    Uiso  ? Ni
   Ni102      1.0     0.445307     0.384803     0.787211    Uiso  ? Ni
   Ni103      1.0     0.560224     0.499737     0.786985    Uiso  ? Ni
   Ni104      1.0     0.445180     0.499712     0.899156    Uiso  ? Ni
   Ni105      1.0     0.559392     0.385725     0.898926    Uiso  ? Ni
   Ni106      1.0     0.673915     0.385593     0.786046    Uiso  ? Ni
   Ni107      1.0     0.787174     0.499974     0.785498    Uiso  ? Ni
   Ni108      1.0     0.673329     0.499968     0.898957    Uiso  ? Ni
   Ni109      1.0     0.330610     0.729047     0.786032    Uiso  ? Ni
   Ni110      1.0     0.444919     0.614851     0.788332    Uiso  ? Ni
   Ni111      1.0     0.559599     0.729161     0.786218    Uiso  ? Ni
   Ni112      1.0     0.559555     0.614232     0.899115    Uiso  ? Ni
   Ni113      1.0     0.674165     0.614363     0.786229    Uiso  ? Ni
   Ni114      1.0     0.786834     0.728086     0.785112    Uiso  ? Ni
   H1         1.0     0.444993     0.500204     0.557233    Uiso  ? H
   H2         1.0     0.215824     0.500072     0.327042    Uiso  ? H
   H3         1.0     0.215799     0.384378     0.442423    Uiso  ? H
   H4         1.0     0.560774     0.500083     0.440752    Uiso  ? H
   H5         1.0     0.331807     0.615107     0.328539    Uiso  ? H
   H6         1.0     0.330691     0.383934     0.558406    Uiso  ? H
   H7         1.0     0.214984     0.501668     0.558953    Uiso  ? H
   H8         1.0     0.561360     0.383599     0.557956    Uiso  ? H
   H9         1.0     0.561452     0.616746     0.557350    Uiso  ? H
   H10        1.0     0.444536     0.615155     0.673188    Uiso  ? H
