
#======================================================================
# CRYSTAL DATA
#----------------------------------------------------------------------
data_VESTA_phase_1

_chemical_name_common                  ' Ni H'
_cell_length_a                         15.441872
_cell_length_b                         15.441872
_cell_length_c                         15.441872
_cell_angle_alpha                      90.000000
_cell_angle_beta                       90.000000
_cell_angle_gamma                      90.000000
_cell_volume                           1.000000
_space_group_name_H-M_alt              'P 1'
_space_group_IT_number                 1

loop_
_space_group_symop_operation_xyz
   'x, y, z'

loop_
   _atom_site_label
   _atom_site_occupancy
   _atom_site_fract_x
   _atom_site_fract_y
   _atom_site_fract_z
   _atom_site_adp_type
   _atom_site_U_iso_or_equiv
   _atom_site_type_symbol
   Ni1        1.0     0.214866     0.270965     0.213864    Uiso  ? Ni
   Ni2        1.0     0.443434     0.270661     0.213606    Uiso  ? Ni
   Ni3        1.0     0.672081     0.270913     0.213804    Uiso  ? Ni
   Ni4        1.0     0.329103     0.499585     0.100267    Uiso  ? Ni
   Ni5        1.0     0.214542     0.499534     0.213581    Uiso  ? Ni
   Ni6        1.0     0.328921     0.384953     0.213716    Uiso  ? Ni
   Ni7        1.0     0.443368     0.385293     0.100226    Uiso  ? Ni
   Ni8        1.0     0.557662     0.499597     0.100392    Uiso  ? Ni
   Ni9        1.0     0.443095     0.499501     0.213464    Uiso  ? Ni
   Ni10       1.0     0.557940     0.384668     0.213250    Uiso  ? Ni
   Ni11       1.0     0.672593     0.499482     0.213316    Uiso  ? Ni
   Ni12       1.0     0.214762     0.728276     0.213772    Uiso  ? Ni
   Ni13       1.0     0.328817     0.614146     0.213694    Uiso  ? Ni
   Ni14       1.0     0.443375     0.613884     0.100314    Uiso  ? Ni
   Ni15       1.0     0.443365     0.728551     0.213610    Uiso  ? Ni
   Ni16       1.0     0.557932     0.614348     0.213463    Uiso  ? Ni
   Ni17       1.0     0.672176     0.728329     0.213722    Uiso  ? Ni
   Ni18       1.0     0.328899     0.270203     0.327197    Uiso  ? Ni
   Ni19       1.0     0.214200     0.270268     0.441763    Uiso  ? Ni
   Ni20       1.0     0.329031     0.156432     0.441866    Uiso  ? Ni
   Ni21       1.0     0.443514     0.156703     0.327768    Uiso  ? Ni
   Ni22       1.0     0.558038     0.270190     0.327247    Uiso  ? Ni
   Ni23       1.0     0.443497     0.269520     0.441323    Uiso  ? Ni
   Ni24       1.0     0.557992     0.156949     0.442197    Uiso  ? Ni
   Ni25       1.0     0.786238     0.270919     0.328013    Uiso  ? Ni
   Ni26       1.0     0.672742     0.270223     0.442081    Uiso  ? Ni
   Ni27       1.0     0.100457     0.499534     0.327610    Uiso  ? Ni
   Ni28       1.0     0.100191     0.385041     0.441722    Uiso  ? Ni
   Ni29       1.0     0.214167     0.384898     0.327177    Uiso  ? Ni
   Ni30       1.0     0.328051     0.499409     0.326105    Uiso  ? Ni
   Ni31       1.0     0.213483     0.499433     0.440887    Uiso  ? Ni
   Ni32       1.0     0.328064     0.383754     0.439423    Uiso  ? Ni
   Ni33       1.0     0.443445     0.384069     0.326402    Uiso  ? Ni
   Ni34       1.0     0.558396     0.499158     0.324883    Uiso  ? Ni
   Ni35       1.0     0.441788     0.498795     0.438854    Uiso  ? Ni
   Ni36       1.0     0.558848     0.382208     0.441055    Uiso  ? Ni
   Ni37       1.0     0.672734     0.384610     0.327272    Uiso  ? Ni
   Ni38       1.0     0.786813     0.499421     0.327426    Uiso  ? Ni
   Ni39       1.0     0.675055     0.499067     0.441380    Uiso  ? Ni
   Ni40       1.0     0.786731     0.384604     0.442183    Uiso  ? Ni
   Ni41       1.0     0.899809     0.499458     0.442372    Uiso  ? Ni
   Ni42       1.0     0.100142     0.614065     0.441603    Uiso  ? Ni
   Ni43       1.0     0.213963     0.614179     0.326968    Uiso  ? Ni
   Ni44       1.0     0.328680     0.729109     0.326965    Uiso  ? Ni
   Ni45       1.0     0.213980     0.729020     0.441536    Uiso  ? Ni
   Ni46       1.0     0.327465     0.615142     0.438764    Uiso  ? Ni
   Ni47       1.0     0.443130     0.614798     0.326227    Uiso  ? Ni
   Ni48       1.0     0.558086     0.729347     0.326784    Uiso  ? Ni
   Ni49       1.0     0.443144     0.730336     0.440510    Uiso  ? Ni
   Ni50       1.0     0.559115     0.616354     0.439085    Uiso  ? Ni
   Ni51       1.0     0.673156     0.614330     0.326838    Uiso  ? Ni
   Ni52       1.0     0.786429     0.728343     0.327821    Uiso  ? Ni
   Ni53       1.0     0.673174     0.729291     0.441625    Uiso  ? Ni
   Ni54       1.0     0.787120     0.614275     0.441762    Uiso  ? Ni
   Ni55       1.0     0.328719     0.843178     0.441562    Uiso  ? Ni
   Ni56       1.0     0.443387     0.842909     0.327417    Uiso  ? Ni
   Ni57       1.0     0.558079     0.843045     0.441572    Uiso  ? Ni
   Ni58       1.0     0.328556     0.268138     0.556671    Uiso  ? Ni
   Ni59       1.0     0.214186     0.270296     0.671492    Uiso  ? Ni
   Ni60       1.0     0.443881     0.156721     0.556725    Uiso  ? Ni
   Ni61       1.0     0.558882     0.269599     0.556984    Uiso  ? Ni
   Ni62       1.0     0.443811     0.269933     0.672033    Uiso  ? Ni
   Ni63       1.0     0.557997     0.156821     0.671224    Uiso  ? Ni
   Ni64       1.0     0.672285     0.156774     0.556716    Uiso  ? Ni
   Ni65       1.0     0.786456     0.270630     0.556732    Uiso  ? Ni
   Ni66       1.0     0.672578     0.270432     0.671368    Uiso  ? Ni
   Ni67       1.0     0.100000     0.499486     0.556534    Uiso  ? Ni
   Ni68       1.0     0.211770     0.384149     0.556595    Uiso  ? Ni
   Ni69       1.0     0.325929     0.499007     0.556566    Uiso  ? Ni
   Ni70       1.0     0.213044     0.499114     0.672293    Uiso  ? Ni
   Ni71       1.0     0.328147     0.383723     0.673841    Uiso  ? Ni
   Ni72       1.0     0.445161     0.381616     0.556746    Uiso  ? Ni
   Ni73       1.0     0.561053     0.497222     0.558351    Uiso  ? Ni
   Ni74       1.0     0.443590     0.497148     0.674428    Uiso  ? Ni
   Ni75       1.0     0.559197     0.383364     0.672676    Uiso  ? Ni
   Ni76       1.0     0.673478     0.383677     0.556985    Uiso  ? Ni
   Ni77       1.0     0.786906     0.499020     0.556998    Uiso  ? Ni
   Ni78       1.0     0.673881     0.498730     0.672384    Uiso  ? Ni
   Ni79       1.0     0.786523     0.384775     0.671269    Uiso  ? Ni
   Ni80       1.0     0.900000     0.385122     0.556718    Uiso  ? Ni
   Ni81       1.0     0.899940     0.499459     0.671053    Uiso  ? Ni
   Ni82       1.0     0.211488     0.614764     0.556307    Uiso  ? Ni
   Ni83       1.0     0.327814     0.731515     0.556249    Uiso  ? Ni
   Ni84       1.0     0.213772     0.729183     0.671518    Uiso  ? Ni
   Ni85       1.0     0.326288     0.614771     0.673979    Uiso  ? Ni
   Ni86       1.0     0.443512     0.616699     0.554932    Uiso  ? Ni
   Ni87       1.0     0.559102     0.731809     0.556528    Uiso  ? Ni
   Ni88       1.0     0.443462     0.731405     0.672222    Uiso  ? Ni
   Ni89       1.0     0.560683     0.614678     0.674097    Uiso  ? Ni
   Ni90       1.0     0.675454     0.614677     0.556705    Uiso  ? Ni
   Ni91       1.0     0.786857     0.728841     0.556662    Uiso  ? Ni
   Ni92       1.0     0.673184     0.729234     0.671609    Uiso  ? Ni
   Ni93       1.0     0.786687     0.613972     0.671582    Uiso  ? Ni
   Ni94       1.0     0.899732     0.613812     0.556725    Uiso  ? Ni
   Ni95       1.0     0.443410     0.843568     0.556264    Uiso  ? Ni
   Ni96       1.0     0.558359     0.843452     0.671565    Uiso  ? Ni
   Ni97       1.0     0.672853     0.843183     0.556584    Uiso  ? Ni
   Ni98       1.0     0.328979     0.270260     0.786047    Uiso  ? Ni
   Ni99       1.0     0.558138     0.270435     0.785827    Uiso  ? Ni
   Ni100      1.0     0.786209     0.270949     0.785254    Uiso  ? Ni
   Ni101      1.0     0.328158     0.499057     0.787121    Uiso  ? Ni
   Ni102      1.0     0.443807     0.383971     0.786858    Uiso  ? Ni
   Ni103      1.0     0.558876     0.498727     0.786716    Uiso  ? Ni
   Ni104      1.0     0.443565     0.499028     0.899773    Uiso  ? Ni
   Ni105      1.0     0.558097     0.384867     0.899656    Uiso  ? Ni
   Ni106      1.0     0.672636     0.384713     0.785829    Uiso  ? Ni
   Ni107      1.0     0.786568     0.499337     0.785642    Uiso  ? Ni
   Ni108      1.0     0.672401     0.499339     0.899589    Uiso  ? Ni
   Ni109      1.0     0.328556     0.729188     0.786416    Uiso  ? Ni
   Ni110      1.0     0.443509     0.614321     0.788622    Uiso  ? Ni
   Ni111      1.0     0.558400     0.729206     0.786408    Uiso  ? Ni
   Ni112      1.0     0.558386     0.613876     0.899774    Uiso  ? Ni
   Ni113      1.0     0.673242     0.613990     0.786416    Uiso  ? Ni
   Ni114      1.0     0.786357     0.728269     0.785408    Uiso  ? Ni
   H1         1.0     0.443562     0.498249     0.556775    Uiso  ? H
   H2         1.0     0.558819     0.498750     0.440562    Uiso  ? H
   H3         1.0     0.327928     0.383164     0.556627    Uiso  ? H
   H4         1.0     0.326777     0.615578     0.555782    Uiso  ? H
   H5         1.0     0.560375     0.615620     0.556644    Uiso  ? H
   H6         1.0     0.443411     0.614702     0.673261    Uiso  ? H
