
#======================================================================
# CRYSTAL DATA
#----------------------------------------------------------------------
data_VESTA_phase_1

_chemical_name_common                  ' Ni H'
_cell_length_a                         15.507579
_cell_length_b                         15.507579
_cell_length_c                         15.507579
_cell_angle_alpha                      90.000000
_cell_angle_beta                       90.000000
_cell_angle_gamma                      90.000000
_cell_volume                           1.000000
_space_group_name_H-M_alt              'P 1'
_space_group_IT_number                 1

loop_
_space_group_symop_operation_xyz
   'x, y, z'

loop_
   _atom_site_label
   _atom_site_occupancy
   _atom_site_fract_x
   _atom_site_fract_y
   _atom_site_fract_z
   _atom_site_adp_type
   _atom_site_U_iso_or_equiv
   _atom_site_type_symbol
   Ni1        1.0     0.216972     0.271388     0.213689    Uiso  ? Ni
   Ni2        1.0     0.446477     0.271232     0.213589    Uiso  ? Ni
   Ni3        1.0     0.673842     0.272583     0.214857    Uiso  ? Ni
   Ni4        1.0     0.331743     0.501463     0.100439    Uiso  ? Ni
   Ni5        1.0     0.216498     0.501728     0.211760    Uiso  ? Ni
   Ni6        1.0     0.331672     0.385910     0.211418    Uiso  ? Ni
   Ni7        1.0     0.446414     0.386437     0.100756    Uiso  ? Ni
   Ni8        1.0     0.560390     0.501094     0.100954    Uiso  ? Ni
   Ni9        1.0     0.446864     0.501748     0.211753    Uiso  ? Ni
   Ni10       1.0     0.561344     0.386373     0.213652    Uiso  ? Ni
   Ni11       1.0     0.674291     0.501095     0.214461    Uiso  ? Ni
   Ni12       1.0     0.217362     0.729726     0.214412    Uiso  ? Ni
   Ni13       1.0     0.331630     0.616733     0.213656    Uiso  ? Ni
   Ni14       1.0     0.445969     0.615675     0.100961    Uiso  ? Ni
   Ni15       1.0     0.446026     0.729880     0.214288    Uiso  ? Ni
   Ni16       1.0     0.560591     0.615780     0.214367    Uiso  ? Ni
   Ni17       1.0     0.673620     0.728973     0.215079    Uiso  ? Ni
   Ni18       1.0     0.331586     0.268670     0.327292    Uiso  ? Ni
   Ni19       1.0     0.215811     0.268995     0.443033    Uiso  ? Ni
   Ni20       1.0     0.331494     0.157064     0.442759    Uiso  ? Ni
   Ni21       1.0     0.446446     0.157617     0.328107    Uiso  ? Ni
   Ni22       1.0     0.561431     0.271035     0.328034    Uiso  ? Ni
   Ni23       1.0     0.447254     0.268272     0.442255    Uiso  ? Ni
   Ni24       1.0     0.560785     0.157736     0.442667    Uiso  ? Ni
   Ni25       1.0     0.787080     0.272766     0.328902    Uiso  ? Ni
   Ni26       1.0     0.674670     0.271715     0.442585    Uiso  ? Ni
   Ni27       1.0     0.100363     0.501717     0.328093    Uiso  ? Ni
   Ni28       1.0     0.100000     0.386127     0.443134    Uiso  ? Ni
   Ni29       1.0     0.214244     0.384404     0.325954    Uiso  ? Ni
   Ni30       1.0     0.331279     0.503636     0.326618    Uiso  ? Ni
   Ni31       1.0     0.214182     0.503696     0.443916    Uiso  ? Ni
   Ni32       1.0     0.331015     0.384378     0.442059    Uiso  ? Ni
   Ni33       1.0     0.448977     0.384110     0.325554    Uiso  ? Ni
   Ni34       1.0     0.563373     0.501754     0.327681    Uiso  ? Ni
   Ni35       1.0     0.448066     0.503909     0.441805    Uiso  ? Ni
   Ni36       1.0     0.564013     0.385386     0.441871    Uiso  ? Ni
   Ni37       1.0     0.674745     0.386291     0.328054    Uiso  ? Ni
   Ni38       1.0     0.787060     0.500972     0.328670    Uiso  ? Ni
   Ni39       1.0     0.675555     0.501453     0.442080    Uiso  ? Ni
   Ni40       1.0     0.787032     0.386663     0.442612    Uiso  ? Ni
   Ni41       1.0     0.899846     0.500832     0.442844    Uiso  ? Ni
   Ni42       1.0     0.101751     0.616576     0.442863    Uiso  ? Ni
   Ni43       1.0     0.216021     0.618601     0.327755    Uiso  ? Ni
   Ni44       1.0     0.331535     0.730669     0.327904    Uiso  ? Ni
   Ni45       1.0     0.216516     0.730390     0.442796    Uiso  ? Ni
   Ni46       1.0     0.331033     0.618591     0.440650    Uiso  ? Ni
   Ni47       1.0     0.447093     0.618964     0.327309    Uiso  ? Ni
   Ni48       1.0     0.560682     0.730079     0.328406    Uiso  ? Ni
   Ni49       1.0     0.446501     0.730870     0.442212    Uiso  ? Ni
   Ni50       1.0     0.562039     0.617341     0.441872    Uiso  ? Ni
   Ni51       1.0     0.674537     0.615839     0.328442    Uiso  ? Ni
   Ni52       1.0     0.787095     0.728865     0.329010    Uiso  ? Ni
   Ni53       1.0     0.674218     0.729627     0.442651    Uiso  ? Ni
   Ni54       1.0     0.787239     0.615258     0.442720    Uiso  ? Ni
   Ni55       1.0     0.331554     0.842936     0.442456    Uiso  ? Ni
   Ni56       1.0     0.445892     0.842647     0.328656    Uiso  ? Ni
   Ni57       1.0     0.559993     0.842815     0.442710    Uiso  ? Ni
   Ni58       1.0     0.330788     0.268260     0.557805    Uiso  ? Ni
   Ni59       1.0     0.215849     0.270673     0.672329    Uiso  ? Ni
   Ni60       1.0     0.446337     0.157366     0.557232    Uiso  ? Ni
   Ni61       1.0     0.561944     0.270209     0.556879    Uiso  ? Ni
   Ni62       1.0     0.446298     0.268680     0.672520    Uiso  ? Ni
   Ni63       1.0     0.560501     0.158164     0.671302    Uiso  ? Ni
   Ni64       1.0     0.674186     0.158348     0.556905    Uiso  ? Ni
   Ni65       1.0     0.787280     0.272521     0.556793    Uiso  ? Ni
   Ni66       1.0     0.674822     0.271556     0.671246    Uiso  ? Ni
   Ni67       1.0     0.101306     0.501517     0.557868    Uiso  ? Ni
   Ni68       1.0     0.213184     0.385103     0.559597    Uiso  ? Ni
   Ni69       1.0     0.328839     0.502044     0.556478    Uiso  ? Ni
   Ni70       1.0     0.213647     0.501683     0.672851    Uiso  ? Ni
   Ni71       1.0     0.328876     0.383633     0.674720    Uiso  ? Ni
   Ni72       1.0     0.448934     0.383257     0.557576    Uiso  ? Ni
   Ni73       1.0     0.564226     0.501900     0.555357    Uiso  ? Ni
   Ni74       1.0     0.446365     0.503253     0.674365    Uiso  ? Ni
   Ni75       1.0     0.563490     0.384088     0.672448    Uiso  ? Ni
   Ni76       1.0     0.675467     0.385822     0.556741    Uiso  ? Ni
   Ni77       1.0     0.787328     0.501021     0.556534    Uiso  ? Ni
   Ni78       1.0     0.676769     0.501339     0.671559    Uiso  ? Ni
   Ni79       1.0     0.787395     0.386405     0.670986    Uiso  ? Ni
   Ni80       1.0     0.899823     0.386948     0.556719    Uiso  ? Ni
   Ni81       1.0     0.899776     0.500834     0.670591    Uiso  ? Ni
   Ni82       1.0     0.213945     0.617530     0.557710    Uiso  ? Ni
   Ni83       1.0     0.331105     0.732374     0.556990    Uiso  ? Ni
   Ni84       1.0     0.216373     0.730379     0.671758    Uiso  ? Ni
   Ni85       1.0     0.330351     0.618785     0.673964    Uiso  ? Ni
   Ni86       1.0     0.448213     0.619471     0.556871    Uiso  ? Ni
   Ni87       1.0     0.561077     0.730705     0.556687    Uiso  ? Ni
   Ni88       1.0     0.446110     0.730763     0.671995    Uiso  ? Ni
   Ni89       1.0     0.561510     0.618324     0.671928    Uiso  ? Ni
   Ni90       1.0     0.674896     0.616340     0.556641    Uiso  ? Ni
   Ni91       1.0     0.787232     0.729060     0.556774    Uiso  ? Ni
   Ni92       1.0     0.674275     0.729714     0.671040    Uiso  ? Ni
   Ni93       1.0     0.787496     0.615463     0.670856    Uiso  ? Ni
   Ni94       1.0     0.900000     0.614732     0.556727    Uiso  ? Ni
   Ni95       1.0     0.446100     0.842861     0.556960    Uiso  ? Ni
   Ni96       1.0     0.559870     0.842554     0.671012    Uiso  ? Ni
   Ni97       1.0     0.673726     0.842735     0.556826    Uiso  ? Ni
   Ni98       1.0     0.330979     0.271074     0.786479    Uiso  ? Ni
   Ni99       1.0     0.560421     0.271616     0.785954    Uiso  ? Ni
   Ni100      1.0     0.787148     0.272801     0.784770    Uiso  ? Ni
   Ni101      1.0     0.330291     0.501406     0.788789    Uiso  ? Ni
   Ni102      1.0     0.446076     0.385585     0.788585    Uiso  ? Ni
   Ni103      1.0     0.561070     0.501345     0.788163    Uiso  ? Ni
   Ni104      1.0     0.445641     0.501298     0.899561    Uiso  ? Ni
   Ni105      1.0     0.560228     0.386358     0.899450    Uiso  ? Ni
   Ni106      1.0     0.674701     0.386360     0.785909    Uiso  ? Ni
   Ni107      1.0     0.787518     0.500955     0.785202    Uiso  ? Ni
   Ni108      1.0     0.674069     0.500972     0.899123    Uiso  ? Ni
   Ni109      1.0     0.331289     0.730167     0.786056    Uiso  ? Ni
   Ni110      1.0     0.446010     0.616848     0.786993    Uiso  ? Ni
   Ni111      1.0     0.559994     0.729678     0.785524    Uiso  ? Ni
   Ni112      1.0     0.559879     0.615535     0.899167    Uiso  ? Ni
   Ni113      1.0     0.674204     0.615547     0.785446    Uiso  ? Ni
   Ni114      1.0     0.787012     0.728737     0.784614    Uiso  ? Ni
   H1         1.0     0.447082     0.502173     0.556805    Uiso  ? H
   H2         1.0     0.331559     0.385232     0.325981    Uiso  ? H
   H3         1.0     0.215819     0.502542     0.327603    Uiso  ? H
   H4         1.0     0.214866     0.386143     0.443268    Uiso  ? H
   H5         1.0     0.447414     0.502519     0.326626    Uiso  ? H
   H6         1.0     0.448247     0.385174     0.441937    Uiso  ? H
   H7         1.0     0.330380     0.384457     0.558126    Uiso  ? H
   H8         1.0     0.329295     0.501575     0.673881    Uiso  ? H
   H9         1.0     0.446601     0.384687     0.673913    Uiso  ? H
   H10        1.0     0.562331     0.501667     0.672235    Uiso  ? H
   H11        1.0     0.330632     0.617552     0.556503    Uiso  ? H
