
#======================================================================
# CRYSTAL DATA
#----------------------------------------------------------------------
data_VESTA_phase_1

_chemical_name_common                  ' Ni H'
_cell_length_a                         15.504038
_cell_length_b                         15.504038
_cell_length_c                         15.504038
_cell_angle_alpha                      90.000000
_cell_angle_beta                       90.000000
_cell_angle_gamma                      90.000000
_cell_volume                           1.000000
_space_group_name_H-M_alt              'P 1'
_space_group_IT_number                 1

loop_
_space_group_symop_operation_xyz
   'x, y, z'

loop_
   _atom_site_label
   _atom_site_occupancy
   _atom_site_fract_x
   _atom_site_fract_y
   _atom_site_fract_z
   _atom_site_adp_type
   _atom_site_U_iso_or_equiv
   _atom_site_type_symbol
   Ni1        1.0     0.216801     0.271150     0.213956    Uiso  ? Ni
   Ni2        1.0     0.445316     0.270584     0.213480    Uiso  ? Ni
   Ni3        1.0     0.673404     0.271564     0.214467    Uiso  ? Ni
   Ni4        1.0     0.330695     0.500044     0.100814    Uiso  ? Ni
   Ni5        1.0     0.216074     0.500023     0.213001    Uiso  ? Ni
   Ni6        1.0     0.330613     0.385063     0.213149    Uiso  ? Ni
   Ni7        1.0     0.445239     0.385464     0.100921    Uiso  ? Ni
   Ni8        1.0     0.559650     0.500046     0.101007    Uiso  ? Ni
   Ni9        1.0     0.445139     0.500264     0.211509    Uiso  ? Ni
   Ni10       1.0     0.560236     0.384929     0.213219    Uiso  ? Ni
   Ni11       1.0     0.674264     0.499963     0.213675    Uiso  ? Ni
   Ni12       1.0     0.216794     0.728815     0.213925    Uiso  ? Ni
   Ni13       1.0     0.330789     0.615032     0.213346    Uiso  ? Ni
   Ni14       1.0     0.445247     0.614613     0.100812    Uiso  ? Ni
   Ni15       1.0     0.445256     0.729190     0.213705    Uiso  ? Ni
   Ni16       1.0     0.559961     0.615044     0.213650    Uiso  ? Ni
   Ni17       1.0     0.673386     0.728349     0.214479    Uiso  ? Ni
   Ni18       1.0     0.330619     0.269789     0.326946    Uiso  ? Ni
   Ni19       1.0     0.215829     0.268712     0.442273    Uiso  ? Ni
   Ni20       1.0     0.330890     0.156793     0.442334    Uiso  ? Ni
   Ni21       1.0     0.445343     0.157339     0.327863    Uiso  ? Ni
   Ni22       1.0     0.560262     0.270096     0.327348    Uiso  ? Ni
   Ni23       1.0     0.445823     0.267553     0.442005    Uiso  ? Ni
   Ni24       1.0     0.559992     0.157363     0.442519    Uiso  ? Ni
   Ni25       1.0     0.786996     0.271623     0.328531    Uiso  ? Ni
   Ni26       1.0     0.674478     0.270370     0.442381    Uiso  ? Ni
   Ni27       1.0     0.102108     0.499996     0.327364    Uiso  ? Ni
   Ni28       1.0     0.100144     0.385158     0.442306    Uiso  ? Ni
   Ni29       1.0     0.215579     0.384733     0.325231    Uiso  ? Ni
   Ni30       1.0     0.328409     0.500269     0.325435    Uiso  ? Ni
   Ni31       1.0     0.214603     0.500159     0.441547    Uiso  ? Ni
   Ni32       1.0     0.330288     0.383284     0.440190    Uiso  ? Ni
   Ni33       1.0     0.445714     0.382841     0.324770    Uiso  ? Ni
   Ni34       1.0     0.562139     0.499960     0.325061    Uiso  ? Ni
   Ni35       1.0     0.444242     0.501168     0.441051    Uiso  ? Ni
   Ni36       1.0     0.562703     0.382105     0.441409    Uiso  ? Ni
   Ni37       1.0     0.674691     0.384815     0.327400    Uiso  ? Ni
   Ni38       1.0     0.787475     0.499867     0.327828    Uiso  ? Ni
   Ni39       1.0     0.677193     0.499775     0.441526    Uiso  ? Ni
   Ni40       1.0     0.787388     0.385069     0.442408    Uiso  ? Ni
   Ni41       1.0     0.899760     0.499817     0.442542    Uiso  ? Ni
   Ni42       1.0     0.100000     0.614820     0.442192    Uiso  ? Ni
   Ni43       1.0     0.215654     0.615333     0.325198    Uiso  ? Ni
   Ni44       1.0     0.330669     0.730070     0.326925    Uiso  ? Ni
   Ni45       1.0     0.215920     0.731125     0.442012    Uiso  ? Ni
   Ni46       1.0     0.331090     0.616968     0.439368    Uiso  ? Ni
   Ni47       1.0     0.445440     0.617535     0.325863    Uiso  ? Ni
   Ni48       1.0     0.560026     0.729928     0.327112    Uiso  ? Ni
   Ni49       1.0     0.445438     0.731251     0.441079    Uiso  ? Ni
   Ni50       1.0     0.561315     0.617676     0.439407    Uiso  ? Ni
   Ni51       1.0     0.674765     0.615028     0.327256    Uiso  ? Ni
   Ni52       1.0     0.787122     0.728302     0.328387    Uiso  ? Ni
   Ni53       1.0     0.674497     0.729534     0.441881    Uiso  ? Ni
   Ni54       1.0     0.787908     0.614651     0.441975    Uiso  ? Ni
   Ni55       1.0     0.330967     0.843032     0.441976    Uiso  ? Ni
   Ni56       1.0     0.445223     0.842467     0.327845    Uiso  ? Ni
   Ni57       1.0     0.559662     0.842754     0.441863    Uiso  ? Ni
   Ni58       1.0     0.330352     0.268117     0.557796    Uiso  ? Ni
   Ni59       1.0     0.216058     0.270444     0.672149    Uiso  ? Ni
   Ni60       1.0     0.445607     0.157198     0.557418    Uiso  ? Ni
   Ni61       1.0     0.560816     0.269444     0.557327    Uiso  ? Ni
   Ni62       1.0     0.445239     0.269721     0.672673    Uiso  ? Ni
   Ni63       1.0     0.559489     0.157870     0.671275    Uiso  ? Ni
   Ni64       1.0     0.673577     0.157704     0.556882    Uiso  ? Ni
   Ni65       1.0     0.787284     0.271280     0.556783    Uiso  ? Ni
   Ni66       1.0     0.674120     0.270746     0.671338    Uiso  ? Ni
   Ni67       1.0     0.101537     0.499909     0.557782    Uiso  ? Ni
   Ni68       1.0     0.213435     0.384145     0.559499    Uiso  ? Ni
   Ni69       1.0     0.327473     0.499683     0.558276    Uiso  ? Ni
   Ni70       1.0     0.214900     0.499566     0.673396    Uiso  ? Ni
   Ni71       1.0     0.329560     0.383704     0.674785    Uiso  ? Ni
   Ni72       1.0     0.446930     0.381418     0.559326    Uiso  ? Ni
   Ni73       1.0     0.563205     0.497950     0.557229    Uiso  ? Ni
   Ni74       1.0     0.443440     0.497878     0.675006    Uiso  ? Ni
   Ni75       1.0     0.561011     0.382095     0.673087    Uiso  ? Ni
   Ni76       1.0     0.675424     0.383796     0.557190    Uiso  ? Ni
   Ni77       1.0     0.787962     0.499475     0.556791    Uiso  ? Ni
   Ni78       1.0     0.676882     0.499215     0.672282    Uiso  ? Ni
   Ni79       1.0     0.787622     0.385036     0.671132    Uiso  ? Ni
   Ni80       1.0     0.900000     0.385723     0.556641    Uiso  ? Ni
   Ni81       1.0     0.899872     0.499834     0.670723    Uiso  ? Ni
   Ni82       1.0     0.213393     0.615621     0.558966    Uiso  ? Ni
   Ni83       1.0     0.329903     0.732012     0.556989    Uiso  ? Ni
   Ni84       1.0     0.215784     0.729627     0.672021    Uiso  ? Ni
   Ni85       1.0     0.328050     0.615559     0.674598    Uiso  ? Ni
   Ni86       1.0     0.445353     0.618186     0.556027    Uiso  ? Ni
   Ni87       1.0     0.560700     0.732227     0.556509    Uiso  ? Ni
   Ni88       1.0     0.444901     0.731912     0.672421    Uiso  ? Ni
   Ni89       1.0     0.562153     0.616747     0.674050    Uiso  ? Ni
   Ni90       1.0     0.676911     0.615397     0.556509    Uiso  ? Ni
   Ni91       1.0     0.787574     0.728806     0.556623    Uiso  ? Ni
   Ni92       1.0     0.674536     0.729495     0.671381    Uiso  ? Ni
   Ni93       1.0     0.787655     0.614471     0.671294    Uiso  ? Ni
   Ni94       1.0     0.899795     0.613942     0.556645    Uiso  ? Ni
   Ni95       1.0     0.445158     0.843207     0.556523    Uiso  ? Ni
   Ni96       1.0     0.559718     0.842835     0.671388    Uiso  ? Ni
   Ni97       1.0     0.673933     0.842697     0.556609    Uiso  ? Ni
   Ni98       1.0     0.330700     0.270763     0.785856    Uiso  ? Ni
   Ni99       1.0     0.559538     0.270768     0.785787    Uiso  ? Ni
   Ni100      1.0     0.786906     0.271770     0.784736    Uiso  ? Ni
   Ni101      1.0     0.329529     0.499463     0.787148    Uiso  ? Ni
   Ni102      1.0     0.445136     0.384142     0.786751    Uiso  ? Ni
   Ni103      1.0     0.560178     0.499189     0.788235    Uiso  ? Ni
   Ni104      1.0     0.444698     0.499379     0.899114    Uiso  ? Ni
   Ni105      1.0     0.559334     0.385112     0.899036    Uiso  ? Ni
   Ni106      1.0     0.674067     0.385024     0.785709    Uiso  ? Ni
   Ni107      1.0     0.787574     0.499741     0.785409    Uiso  ? Ni
   Ni108      1.0     0.673690     0.499720     0.898999    Uiso  ? Ni
   Ni109      1.0     0.330344     0.729289     0.786117    Uiso  ? Ni
   Ni110      1.0     0.444803     0.614946     0.788608    Uiso  ? Ni
   Ni111      1.0     0.559706     0.729461     0.786231    Uiso  ? Ni
   Ni112      1.0     0.559620     0.614349     0.899188    Uiso  ? Ni
   Ni113      1.0     0.674541     0.614446     0.786180    Uiso  ? Ni
   Ni114      1.0     0.786970     0.728101     0.784801    Uiso  ? Ni
   H1         1.0     0.444847     0.499391     0.557577    Uiso  ? H
   H2         1.0     0.215067     0.384922     0.441834    Uiso  ? H
   H3         1.0     0.444366     0.500783     0.325909    Uiso  ? H
   H4         1.0     0.446339     0.383007     0.441656    Uiso  ? H
   H5         1.0     0.562092     0.499912     0.440919    Uiso  ? H
   H6         1.0     0.215149     0.615147     0.441425    Uiso  ? H
   H7         1.0     0.329883     0.383766     0.558555    Uiso  ? H
   H8         1.0     0.560973     0.498480     0.673341    Uiso  ? H
   H9         1.0     0.329343     0.615888     0.556884    Uiso  ? H
   H10        1.0     0.561752     0.616384     0.556380    Uiso  ? H
   H11        1.0     0.444750     0.615767     0.673726    Uiso  ? H
