
#======================================================================
# CRYSTAL DATA
#----------------------------------------------------------------------
data_VESTA_phase_1

_chemical_name_common                  ' Ni H'
_cell_length_a                         15.508318
_cell_length_b                         15.508318
_cell_length_c                         15.508318
_cell_angle_alpha                      90.000000
_cell_angle_beta                       90.000000
_cell_angle_gamma                      90.000000
_cell_volume                           1.000000
_space_group_name_H-M_alt              'P 1'
_space_group_IT_number                 1

loop_
_space_group_symop_operation_xyz
   'x, y, z'

loop_
   _atom_site_label
   _atom_site_occupancy
   _atom_site_fract_x
   _atom_site_fract_y
   _atom_site_fract_z
   _atom_site_adp_type
   _atom_site_U_iso_or_equiv
   _atom_site_type_symbol
   Ni1        1.0     0.217708     0.270300     0.213510    Uiso  ? Ni
   Ni2        1.0     0.446035     0.270729     0.214002    Uiso  ? Ni
   Ni3        1.0     0.673325     0.271353     0.214558    Uiso  ? Ni
   Ni4        1.0     0.332290     0.499206     0.100787    Uiso  ? Ni
   Ni5        1.0     0.217418     0.499136     0.211335    Uiso  ? Ni
   Ni6        1.0     0.332445     0.384230     0.213207    Uiso  ? Ni
   Ni7        1.0     0.446006     0.385070     0.100939    Uiso  ? Ni
   Ni8        1.0     0.559766     0.499188     0.101119    Uiso  ? Ni
   Ni9        1.0     0.446671     0.498689     0.213350    Uiso  ? Ni
   Ni10       1.0     0.560051     0.384729     0.214048    Uiso  ? Ni
   Ni11       1.0     0.673656     0.499042     0.214258    Uiso  ? Ni
   Ni12       1.0     0.217460     0.728529     0.213274    Uiso  ? Ni
   Ni13       1.0     0.332021     0.613993     0.212999    Uiso  ? Ni
   Ni14       1.0     0.446002     0.613332     0.101270    Uiso  ? Ni
   Ni15       1.0     0.446004     0.728213     0.213606    Uiso  ? Ni
   Ni16       1.0     0.560452     0.613436     0.213822    Uiso  ? Ni
   Ni17       1.0     0.673518     0.727366     0.214382    Uiso  ? Ni
   Ni18       1.0     0.332299     0.269743     0.327146    Uiso  ? Ni
   Ni19       1.0     0.217180     0.267987     0.441998    Uiso  ? Ni
   Ni20       1.0     0.332008     0.157088     0.442037    Uiso  ? Ni
   Ni21       1.0     0.445938     0.157227     0.327926    Uiso  ? Ni
   Ni22       1.0     0.560126     0.270472     0.327568    Uiso  ? Ni
   Ni23       1.0     0.446528     0.269330     0.440936    Uiso  ? Ni
   Ni24       1.0     0.559904     0.157327     0.441906    Uiso  ? Ni
   Ni25       1.0     0.786862     0.271430     0.328307    Uiso  ? Ni
   Ni26       1.0     0.673920     0.270698     0.441694    Uiso  ? Ni
   Ni27       1.0     0.100516     0.499209     0.326867    Uiso  ? Ni
   Ni28       1.0     0.100412     0.383731     0.442189    Uiso  ? Ni
   Ni29       1.0     0.217266     0.382236     0.325228    Uiso  ? Ni
   Ni30       1.0     0.333723     0.498371     0.325306    Uiso  ? Ni
   Ni31       1.0     0.215749     0.498690     0.441491    Uiso  ? Ni
   Ni32       1.0     0.333403     0.382191     0.440528    Uiso  ? Ni
   Ni33       1.0     0.446901     0.383245     0.326356    Uiso  ? Ni
   Ni34       1.0     0.560910     0.498381     0.326435    Uiso  ? Ni
   Ni35       1.0     0.447321     0.496563     0.438254    Uiso  ? Ni
   Ni36       1.0     0.561165     0.382982     0.440269    Uiso  ? Ni
   Ni37       1.0     0.673866     0.384688     0.327629    Uiso  ? Ni
   Ni38       1.0     0.787183     0.499060     0.327860    Uiso  ? Ni
   Ni39       1.0     0.675150     0.498379     0.440538    Uiso  ? Ni
   Ni40       1.0     0.787257     0.384849     0.441736    Uiso  ? Ni
   Ni41       1.0     0.899970     0.499216     0.442098    Uiso  ? Ni
   Ni42       1.0     0.100000     0.614730     0.441938    Uiso  ? Ni
   Ni43       1.0     0.216499     0.616191     0.324548    Uiso  ? Ni
   Ni44       1.0     0.331832     0.729495     0.326401    Uiso  ? Ni
   Ni45       1.0     0.216371     0.731181     0.441687    Uiso  ? Ni
   Ni46       1.0     0.331367     0.615364     0.438936    Uiso  ? Ni
   Ni47       1.0     0.446827     0.614329     0.324209    Uiso  ? Ni
   Ni48       1.0     0.560449     0.728621     0.326907    Uiso  ? Ni
   Ni49       1.0     0.446358     0.731524     0.440443    Uiso  ? Ni
   Ni50       1.0     0.562991     0.614298     0.438665    Uiso  ? Ni
   Ni51       1.0     0.674548     0.613428     0.326934    Uiso  ? Ni
   Ni52       1.0     0.787007     0.727286     0.328133    Uiso  ? Ni
   Ni53       1.0     0.674550     0.728446     0.441416    Uiso  ? Ni
   Ni54       1.0     0.787342     0.613348     0.441432    Uiso  ? Ni
   Ni55       1.0     0.331400     0.842764     0.441619    Uiso  ? Ni
   Ni56       1.0     0.445888     0.842319     0.327276    Uiso  ? Ni
   Ni57       1.0     0.560349     0.842517     0.441493    Uiso  ? Ni
   Ni58       1.0     0.331380     0.269163     0.556450    Uiso  ? Ni
   Ni59       1.0     0.216622     0.269416     0.671648    Uiso  ? Ni
   Ni60       1.0     0.445862     0.157247     0.555900    Uiso  ? Ni
   Ni61       1.0     0.560840     0.269625     0.555564    Uiso  ? Ni
   Ni62       1.0     0.445554     0.267961     0.671082    Uiso  ? Ni
   Ni63       1.0     0.560000     0.157384     0.670291    Uiso  ? Ni
   Ni64       1.0     0.673613     0.157516     0.556042    Uiso  ? Ni
   Ni65       1.0     0.787242     0.271012     0.555981    Uiso  ? Ni
   Ni66       1.0     0.674460     0.270231     0.670358    Uiso  ? Ni
   Ni67       1.0     0.100016     0.498934     0.557757    Uiso  ? Ni
   Ni68       1.0     0.215859     0.381369     0.558757    Uiso  ? Ni
   Ni69       1.0     0.330865     0.496585     0.556930    Uiso  ? Ni
   Ni70       1.0     0.215627     0.498814     0.674267    Uiso  ? Ni
   Ni71       1.0     0.329040     0.382682     0.672558    Uiso  ? Ni
   Ni72       1.0     0.446549     0.380706     0.554446    Uiso  ? Ni
   Ni73       1.0     0.563290     0.496651     0.554068    Uiso  ? Ni
   Ni74       1.0     0.444330     0.498465     0.674181    Uiso  ? Ni
   Ni75       1.0     0.562440     0.381892     0.671273    Uiso  ? Ni
   Ni76       1.0     0.675234     0.383566     0.555430    Uiso  ? Ni
   Ni77       1.0     0.787611     0.498754     0.555644    Uiso  ? Ni
   Ni78       1.0     0.676993     0.498766     0.671086    Uiso  ? Ni
   Ni79       1.0     0.787424     0.384593     0.670241    Uiso  ? Ni
   Ni80       1.0     0.900000     0.385269     0.556055    Uiso  ? Ni
   Ni81       1.0     0.899734     0.499220     0.670011    Uiso  ? Ni
   Ni82       1.0     0.214045     0.616546     0.559045    Uiso  ? Ni
   Ni83       1.0     0.330564     0.731807     0.556870    Uiso  ? Ni
   Ni84       1.0     0.216091     0.729621     0.672131    Uiso  ? Ni
   Ni85       1.0     0.328464     0.615253     0.674463    Uiso  ? Ni
   Ni86       1.0     0.446250     0.616635     0.556145    Uiso  ? Ni
   Ni87       1.0     0.561351     0.731324     0.555982    Uiso  ? Ni
   Ni88       1.0     0.445436     0.731411     0.672193    Uiso  ? Ni
   Ni89       1.0     0.562984     0.616130     0.673458    Uiso  ? Ni
   Ni90       1.0     0.677035     0.614118     0.555750    Uiso  ? Ni
   Ni91       1.0     0.787552     0.727921     0.556051    Uiso  ? Ni
   Ni92       1.0     0.674922     0.728815     0.670855    Uiso  ? Ni
   Ni93       1.0     0.787751     0.613768     0.670665    Uiso  ? Ni
   Ni94       1.0     0.899696     0.613177     0.556047    Uiso  ? Ni
   Ni95       1.0     0.445762     0.842912     0.556356    Uiso  ? Ni
   Ni96       1.0     0.560163     0.842172     0.670961    Uiso  ? Ni
   Ni97       1.0     0.674232     0.842033     0.556169    Uiso  ? Ni
   Ni98       1.0     0.331006     0.270160     0.785359    Uiso  ? Ni
   Ni99       1.0     0.560013     0.270251     0.785235    Uiso  ? Ni
   Ni100      1.0     0.786993     0.271345     0.784106    Uiso  ? Ni
   Ni101      1.0     0.330081     0.498855     0.787092    Uiso  ? Ni
   Ni102      1.0     0.445357     0.383634     0.787866    Uiso  ? Ni
   Ni103      1.0     0.560872     0.498886     0.787957    Uiso  ? Ni
   Ni104      1.0     0.445176     0.499181     0.899213    Uiso  ? Ni
   Ni105      1.0     0.559953     0.384619     0.899015    Uiso  ? Ni
   Ni106      1.0     0.674423     0.384573     0.785201    Uiso  ? Ni
   Ni107      1.0     0.787585     0.499163     0.784764    Uiso  ? Ni
   Ni108      1.0     0.674063     0.499212     0.898704    Uiso  ? Ni
   Ni109      1.0     0.330759     0.728872     0.785891    Uiso  ? Ni
   Ni110      1.0     0.445294     0.614690     0.788443    Uiso  ? Ni
   Ni111      1.0     0.560162     0.728841     0.785823    Uiso  ? Ni
   Ni112      1.0     0.560057     0.613885     0.898915    Uiso  ? Ni
   Ni113      1.0     0.674930     0.613855     0.785752    Uiso  ? Ni
   Ni114      1.0     0.787195     0.727448     0.784324    Uiso  ? Ni
   H1         1.0     0.446103     0.497459     0.554984    Uiso  ? H
   H2         1.0     0.217421     0.499284     0.325762    Uiso  ? H
   H3         1.0     0.217252     0.382727     0.442169    Uiso  ? H
   H4         1.0     0.215224     0.615689     0.441404    Uiso  ? H
   H5         1.0     0.446665     0.614278     0.438986    Uiso  ? H
   H6         1.0     0.215262     0.498533     0.558818    Uiso  ? H
   H7         1.0     0.445019     0.382571     0.671476    Uiso  ? H
   H8         1.0     0.562068     0.498571     0.671958    Uiso  ? H
   H9         1.0     0.330162     0.615054     0.557113    Uiso  ? H
   H10        1.0     0.562788     0.614896     0.555711    Uiso  ? H
   H11        1.0     0.445405     0.615448     0.673323    Uiso  ? H
