
#======================================================================
# CRYSTAL DATA
#----------------------------------------------------------------------
data_VESTA_phase_1

_chemical_name_common                  ' Ni H'
_cell_length_a                         15.515867
_cell_length_b                         15.515867
_cell_length_c                         15.515867
_cell_angle_alpha                      90.000000
_cell_angle_beta                       90.000000
_cell_angle_gamma                      90.000000
_cell_volume                           1.000000
_space_group_name_H-M_alt              'P 1'
_space_group_IT_number                 1

loop_
_space_group_symop_operation_xyz
   'x, y, z'

loop_
   _atom_site_label
   _atom_site_occupancy
   _atom_site_fract_x
   _atom_site_fract_y
   _atom_site_fract_z
   _atom_site_adp_type
   _atom_site_U_iso_or_equiv
   _atom_site_type_symbol
   Ni1        1.0     0.217136     0.270742     0.214243    Uiso  ? Ni
   Ni2        1.0     0.445772     0.270486     0.214042    Uiso  ? Ni
   Ni3        1.0     0.673701     0.271680     0.215157    Uiso  ? Ni
   Ni4        1.0     0.331544     0.499686     0.100650    Uiso  ? Ni
   Ni5        1.0     0.216314     0.499652     0.211705    Uiso  ? Ni
   Ni6        1.0     0.331290     0.384223     0.212960    Uiso  ? Ni
   Ni7        1.0     0.445908     0.385276     0.101344    Uiso  ? Ni
   Ni8        1.0     0.560290     0.499999     0.101425    Uiso  ? Ni
   Ni9        1.0     0.446405     0.499972     0.211579    Uiso  ? Ni
   Ni10       1.0     0.560696     0.384976     0.214033    Uiso  ? Ni
   Ni11       1.0     0.674534     0.500170     0.214336    Uiso  ? Ni
   Ni12       1.0     0.217077     0.729457     0.214191    Uiso  ? Ni
   Ni13       1.0     0.331754     0.615295     0.212030    Uiso  ? Ni
   Ni14       1.0     0.446202     0.614705     0.100899    Uiso  ? Ni
   Ni15       1.0     0.446233     0.729563     0.214141    Uiso  ? Ni
   Ni16       1.0     0.560844     0.615246     0.213807    Uiso  ? Ni
   Ni17       1.0     0.673630     0.728416     0.215239    Uiso  ? Ni
   Ni18       1.0     0.331137     0.269728     0.327871    Uiso  ? Ni
   Ni19       1.0     0.216286     0.268532     0.443544    Uiso  ? Ni
   Ni20       1.0     0.331026     0.157103     0.443191    Uiso  ? Ni
   Ni21       1.0     0.445583     0.157386     0.328439    Uiso  ? Ni
   Ni22       1.0     0.560644     0.269863     0.327775    Uiso  ? Ni
   Ni23       1.0     0.445526     0.267444     0.442418    Uiso  ? Ni
   Ni24       1.0     0.560142     0.157135     0.442741    Uiso  ? Ni
   Ni25       1.0     0.787218     0.271807     0.329101    Uiso  ? Ni
   Ni26       1.0     0.674929     0.270398     0.442692    Uiso  ? Ni
   Ni27       1.0     0.100310     0.499683     0.328412    Uiso  ? Ni
   Ni28       1.0     0.100529     0.384761     0.443804    Uiso  ? Ni
   Ni29       1.0     0.215839     0.382542     0.326349    Uiso  ? Ni
   Ni30       1.0     0.330898     0.498199     0.326382    Uiso  ? Ni
   Ni31       1.0     0.214934     0.499882     0.445150    Uiso  ? Ni
   Ni32       1.0     0.330266     0.382703     0.442817    Uiso  ? Ni
   Ni33       1.0     0.446211     0.382307     0.325479    Uiso  ? Ni
   Ni34       1.0     0.562932     0.500472     0.325876    Uiso  ? Ni
   Ni35       1.0     0.445027     0.501960     0.442642    Uiso  ? Ni
   Ni36       1.0     0.562838     0.382820     0.440594    Uiso  ? Ni
   Ni37       1.0     0.675238     0.385079     0.327817    Uiso  ? Ni
   Ni38       1.0     0.787437     0.500308     0.328565    Uiso  ? Ni
   Ni39       1.0     0.677358     0.500855     0.442344    Uiso  ? Ni
   Ni40       1.0     0.787805     0.385568     0.442668    Uiso  ? Ni
   Ni41       1.0     0.899679     0.500227     0.443170    Uiso  ? Ni
   Ni42       1.0     0.100000     0.615163     0.443917    Uiso  ? Ni
   Ni43       1.0     0.214632     0.616995     0.326547    Uiso  ? Ni
   Ni44       1.0     0.331761     0.731933     0.328194    Uiso  ? Ni
   Ni45       1.0     0.216232     0.731678     0.443808    Uiso  ? Ni
   Ni46       1.0     0.332321     0.617365     0.443577    Uiso  ? Ni
   Ni47       1.0     0.448456     0.617883     0.327055    Uiso  ? Ni
   Ni48       1.0     0.560901     0.730069     0.328409    Uiso  ? Ni
   Ni49       1.0     0.446721     0.731064     0.443208    Uiso  ? Ni
   Ni50       1.0     0.561827     0.618343     0.442580    Uiso  ? Ni
   Ni51       1.0     0.674508     0.615358     0.328450    Uiso  ? Ni
   Ni52       1.0     0.786981     0.728258     0.329309    Uiso  ? Ni
   Ni53       1.0     0.674405     0.729344     0.443169    Uiso  ? Ni
   Ni54       1.0     0.787547     0.615017     0.443085    Uiso  ? Ni
   Ni55       1.0     0.331768     0.843068     0.443524    Uiso  ? Ni
   Ni56       1.0     0.446251     0.842559     0.329018    Uiso  ? Ni
   Ni57       1.0     0.560128     0.842207     0.443353    Uiso  ? Ni
   Ni58       1.0     0.329915     0.269311     0.558374    Uiso  ? Ni
   Ni59       1.0     0.216400     0.270551     0.672582    Uiso  ? Ni
   Ni60       1.0     0.445105     0.156931     0.557625    Uiso  ? Ni
   Ni61       1.0     0.560804     0.268025     0.557531    Uiso  ? Ni
   Ni62       1.0     0.444853     0.268249     0.673038    Uiso  ? Ni
   Ni63       1.0     0.559855     0.157392     0.671978    Uiso  ? Ni
   Ni64       1.0     0.674071     0.157532     0.557327    Uiso  ? Ni
   Ni65       1.0     0.787671     0.271361     0.557273    Uiso  ? Ni
   Ni66       1.0     0.674677     0.270700     0.671955    Uiso  ? Ni
   Ni67       1.0     0.101931     0.499706     0.559161    Uiso  ? Ni
   Ni68       1.0     0.215375     0.383984     0.560530    Uiso  ? Ni
   Ni69       1.0     0.328193     0.498758     0.559910    Uiso  ? Ni
   Ni70       1.0     0.215646     0.500087     0.673674    Uiso  ? Ni
   Ni71       1.0     0.328201     0.384316     0.674055    Uiso  ? Ni
   Ni72       1.0     0.443872     0.382200     0.558421    Uiso  ? Ni
   Ni73       1.0     0.563276     0.502448     0.558048    Uiso  ? Ni
   Ni74       1.0     0.443572     0.502334     0.675341    Uiso  ? Ni
   Ni75       1.0     0.562198     0.383402     0.674638    Uiso  ? Ni
   Ni76       1.0     0.677270     0.384820     0.557435    Uiso  ? Ni
   Ni77       1.0     0.788029     0.500666     0.557400    Uiso  ? Ni
   Ni78       1.0     0.676985     0.500868     0.672785    Uiso  ? Ni
   Ni79       1.0     0.787787     0.385666     0.671872    Uiso  ? Ni
   Ni80       1.0     0.899706     0.386190     0.557194    Uiso  ? Ni
   Ni81       1.0     0.899842     0.500215     0.671202    Uiso  ? Ni
   Ni82       1.0     0.214191     0.615782     0.560863    Uiso  ? Ni
   Ni83       1.0     0.331178     0.731904     0.558771    Uiso  ? Ni
   Ni84       1.0     0.216639     0.729493     0.672747    Uiso  ? Ni
   Ni85       1.0     0.330270     0.615986     0.674934    Uiso  ? Ni
   Ni86       1.0     0.447543     0.618655     0.559011    Uiso  ? Ni
   Ni87       1.0     0.560887     0.730230     0.557849    Uiso  ? Ni
   Ni88       1.0     0.445624     0.729916     0.672935    Uiso  ? Ni
   Ni89       1.0     0.561015     0.617852     0.673365    Uiso  ? Ni
   Ni90       1.0     0.675305     0.616213     0.557638    Uiso  ? Ni
   Ni91       1.0     0.787296     0.728548     0.557353    Uiso  ? Ni
   Ni92       1.0     0.674174     0.729051     0.671776    Uiso  ? Ni
   Ni93       1.0     0.787608     0.614920     0.671555    Uiso  ? Ni
   Ni94       1.0     0.900000     0.614245     0.557209    Uiso  ? Ni
   Ni95       1.0     0.446100     0.842386     0.557885    Uiso  ? Ni
   Ni96       1.0     0.559696     0.841830     0.671721    Uiso  ? Ni
   Ni97       1.0     0.673654     0.841993     0.557467    Uiso  ? Ni
   Ni98       1.0     0.330658     0.271065     0.786257    Uiso  ? Ni
   Ni99       1.0     0.559817     0.270724     0.786576    Uiso  ? Ni
   Ni100      1.0     0.787020     0.272076     0.785204    Uiso  ? Ni
   Ni101      1.0     0.329907     0.500256     0.787119    Uiso  ? Ni
   Ni102      1.0     0.444794     0.385181     0.788690    Uiso  ? Ni
   Ni103      1.0     0.560292     0.500839     0.788593    Uiso  ? Ni
   Ni104      1.0     0.444897     0.500564     0.899316    Uiso  ? Ni
   Ni105      1.0     0.559698     0.385740     0.899350    Uiso  ? Ni
   Ni106      1.0     0.674639     0.385670     0.786538    Uiso  ? Ni
   Ni107      1.0     0.787601     0.500305     0.785788    Uiso  ? Ni
   Ni108      1.0     0.673762     0.500280     0.899244    Uiso  ? Ni
   Ni109      1.0     0.331158     0.728986     0.786102    Uiso  ? Ni
   Ni110      1.0     0.445411     0.615749     0.787150    Uiso  ? Ni
   Ni111      1.0     0.559711     0.729018     0.786129    Uiso  ? Ni
   Ni112      1.0     0.559504     0.614786     0.899321    Uiso  ? Ni
   Ni113      1.0     0.674096     0.614901     0.786032    Uiso  ? Ni
   Ni114      1.0     0.786904     0.728049     0.785089    Uiso  ? Ni
   H1         1.0     0.444735     0.501089     0.558240    Uiso  ? H
   H2         1.0     0.215464     0.499358     0.327577    Uiso  ? H
   H3         1.0     0.215926     0.384216     0.444145    Uiso  ? H
   H4         1.0     0.446631     0.499971     0.326325    Uiso  ? H
   H5         1.0     0.445257     0.383669     0.441723    Uiso  ? H
   H6         1.0     0.562389     0.501560     0.441899    Uiso  ? H
   H7         1.0     0.332036     0.615881     0.327810    Uiso  ? H
   H8         1.0     0.215253     0.615900     0.444058    Uiso  ? H
   H9         1.0     0.561941     0.383926     0.557683    Uiso  ? H
   H10        1.0     0.444278     0.384531     0.674167    Uiso  ? H
   H11        1.0     0.561098     0.501518     0.674027    Uiso  ? H
   H12        1.0     0.330968     0.615507     0.559476    Uiso  ? H
