
#======================================================================
# CRYSTAL DATA
#----------------------------------------------------------------------
data_VESTA_phase_1

_chemical_name_common                  ' Ni H'
_cell_length_a                         15.496041
_cell_length_b                         15.496041
_cell_length_c                         15.496041
_cell_angle_alpha                      90.000000
_cell_angle_beta                       90.000000
_cell_angle_gamma                      90.000000
_cell_volume                           1.000000
_space_group_name_H-M_alt              'P 1'
_space_group_IT_number                 1

loop_
_space_group_symop_operation_xyz
   'x, y, z'

loop_
   _atom_site_label
   _atom_site_occupancy
   _atom_site_fract_x
   _atom_site_fract_y
   _atom_site_fract_z
   _atom_site_adp_type
   _atom_site_U_iso_or_equiv
   _atom_site_type_symbol
   Ni1        1.0     0.216387     0.270824     0.214514    Uiso  ? Ni
   Ni2        1.0     0.445662     0.270462     0.214174    Uiso  ? Ni
   Ni3        1.0     0.673410     0.271534     0.215112    Uiso  ? Ni
   Ni4        1.0     0.331005     0.500347     0.100622    Uiso  ? Ni
   Ni5        1.0     0.215787     0.500314     0.212415    Uiso  ? Ni
   Ni6        1.0     0.330843     0.384795     0.212291    Uiso  ? Ni
   Ni7        1.0     0.445686     0.385322     0.100852    Uiso  ? Ni
   Ni8        1.0     0.559874     0.500005     0.101182    Uiso  ? Ni
   Ni9        1.0     0.446064     0.500044     0.211984    Uiso  ? Ni
   Ni10       1.0     0.560434     0.385074     0.214208    Uiso  ? Ni
   Ni11       1.0     0.674063     0.499928     0.214481    Uiso  ? Ni
   Ni12       1.0     0.216505     0.728979     0.214595    Uiso  ? Ni
   Ni13       1.0     0.330488     0.615601     0.213617    Uiso  ? Ni
   Ni14       1.0     0.445356     0.614699     0.101316    Uiso  ? Ni
   Ni15       1.0     0.445319     0.729442     0.214122    Uiso  ? Ni
   Ni16       1.0     0.560359     0.614832     0.214223    Uiso  ? Ni
   Ni17       1.0     0.673441     0.728377     0.215077    Uiso  ? Ni
   Ni18       1.0     0.330741     0.268147     0.328332    Uiso  ? Ni
   Ni19       1.0     0.215416     0.269846     0.443515    Uiso  ? Ni
   Ni20       1.0     0.330796     0.156855     0.443246    Uiso  ? Ni
   Ni21       1.0     0.445646     0.157229     0.328888    Uiso  ? Ni
   Ni22       1.0     0.560519     0.270024     0.328330    Uiso  ? Ni
   Ni23       1.0     0.445787     0.269295     0.442788    Uiso  ? Ni
   Ni24       1.0     0.559667     0.157202     0.442966    Uiso  ? Ni
   Ni25       1.0     0.786945     0.271679     0.329167    Uiso  ? Ni
   Ni26       1.0     0.674205     0.270745     0.442902    Uiso  ? Ni
   Ni27       1.0     0.100000     0.500284     0.328831    Uiso  ? Ni
   Ni28       1.0     0.101240     0.384956     0.443570    Uiso  ? Ni
   Ni29       1.0     0.213740     0.383255     0.328419    Uiso  ? Ni
   Ni30       1.0     0.330332     0.501631     0.327290    Uiso  ? Ni
   Ni31       1.0     0.213633     0.500081     0.444508    Uiso  ? Ni
   Ni32       1.0     0.329515     0.383017     0.442646    Uiso  ? Ni
   Ni33       1.0     0.447663     0.382419     0.327294    Uiso  ? Ni
   Ni34       1.0     0.562801     0.499874     0.327225    Uiso  ? Ni
   Ni35       1.0     0.446557     0.498340     0.442508    Uiso  ? Ni
   Ni36       1.0     0.561732     0.383732     0.440974    Uiso  ? Ni
   Ni37       1.0     0.674402     0.385028     0.328269    Uiso  ? Ni
   Ni38       1.0     0.786993     0.499874     0.328814    Uiso  ? Ni
   Ni39       1.0     0.675431     0.499658     0.442391    Uiso  ? Ni
   Ni40       1.0     0.787399     0.385492     0.442817    Uiso  ? Ni
   Ni41       1.0     0.899810     0.499936     0.443263    Uiso  ? Ni
   Ni42       1.0     0.101651     0.615078     0.443232    Uiso  ? Ni
   Ni43       1.0     0.214889     0.617224     0.327996    Uiso  ? Ni
   Ni44       1.0     0.330381     0.730191     0.327893    Uiso  ? Ni
   Ni45       1.0     0.215380     0.730050     0.443157    Uiso  ? Ni
   Ni46       1.0     0.328031     0.616918     0.441020    Uiso  ? Ni
   Ni47       1.0     0.446000     0.617408     0.325820    Uiso  ? Ni
   Ni48       1.0     0.560353     0.729820     0.328049    Uiso  ? Ni
   Ni49       1.0     0.445315     0.731990     0.442457    Uiso  ? Ni
   Ni50       1.0     0.562611     0.615737     0.440743    Uiso  ? Ni
   Ni51       1.0     0.674767     0.614796     0.328031    Uiso  ? Ni
   Ni52       1.0     0.787019     0.728254     0.329131    Uiso  ? Ni
   Ni53       1.0     0.674382     0.729297     0.442848    Uiso  ? Ni
   Ni54       1.0     0.787288     0.614281     0.442823    Uiso  ? Ni
   Ni55       1.0     0.330372     0.843011     0.442819    Uiso  ? Ni
   Ni56       1.0     0.445200     0.842655     0.328486    Uiso  ? Ni
   Ni57       1.0     0.559805     0.842960     0.442876    Uiso  ? Ni
   Ni58       1.0     0.329991     0.267767     0.557970    Uiso  ? Ni
   Ni59       1.0     0.215785     0.270500     0.672309    Uiso  ? Ni
   Ni60       1.0     0.445265     0.157033     0.557701    Uiso  ? Ni
   Ni61       1.0     0.560511     0.268399     0.557732    Uiso  ? Ni
   Ni62       1.0     0.445503     0.269691     0.673140    Uiso  ? Ni
   Ni63       1.0     0.559474     0.157327     0.672073    Uiso  ? Ni
   Ni64       1.0     0.673758     0.157363     0.557468    Uiso  ? Ni
   Ni65       1.0     0.787429     0.271241     0.557442    Uiso  ? Ni
   Ni66       1.0     0.673888     0.271036     0.672107    Uiso  ? Ni
   Ni67       1.0     0.101091     0.500012     0.557984    Uiso  ? Ni
   Ni68       1.0     0.212973     0.383956     0.558246    Uiso  ? Ni
   Ni69       1.0     0.327711     0.500015     0.557273    Uiso  ? Ni
   Ni70       1.0     0.213372     0.499971     0.672986    Uiso  ? Ni
   Ni71       1.0     0.329911     0.382798     0.674838    Uiso  ? Ni
   Ni72       1.0     0.445745     0.381710     0.558563    Uiso  ? Ni
   Ni73       1.0     0.563337     0.499714     0.558319    Uiso  ? Ni
   Ni74       1.0     0.447150     0.499660     0.675525    Uiso  ? Ni
   Ni75       1.0     0.560803     0.384314     0.674849    Uiso  ? Ni
   Ni76       1.0     0.676506     0.384654     0.557711    Uiso  ? Ni
   Ni77       1.0     0.787535     0.499889     0.557581    Uiso  ? Ni
   Ni78       1.0     0.674702     0.499889     0.673081    Uiso  ? Ni
   Ni79       1.0     0.787344     0.385663     0.672037    Uiso  ? Ni
   Ni80       1.0     0.899834     0.385904     0.557333    Uiso  ? Ni
   Ni81       1.0     0.900000     0.499937     0.671371    Uiso  ? Ni
   Ni82       1.0     0.212900     0.616041     0.558159    Uiso  ? Ni
   Ni83       1.0     0.329619     0.732133     0.557912    Uiso  ? Ni
   Ni84       1.0     0.215682     0.729465     0.672375    Uiso  ? Ni
   Ni85       1.0     0.329602     0.617144     0.675169    Uiso  ? Ni
   Ni86       1.0     0.445427     0.617800     0.559748    Uiso  ? Ni
   Ni87       1.0     0.560615     0.731601     0.557913    Uiso  ? Ni
   Ni88       1.0     0.445414     0.730422     0.673421    Uiso  ? Ni
   Ni89       1.0     0.560939     0.615462     0.675083    Uiso  ? Ni
   Ni90       1.0     0.676643     0.615113     0.557850    Uiso  ? Ni
   Ni91       1.0     0.787421     0.728658     0.557453    Uiso  ? Ni
   Ni92       1.0     0.673923     0.728871     0.672160    Uiso  ? Ni
   Ni93       1.0     0.787369     0.614194     0.672082    Uiso  ? Ni
   Ni94       1.0     0.899789     0.613967     0.557324    Uiso  ? Ni
   Ni95       1.0     0.445123     0.843145     0.557899    Uiso  ? Ni
   Ni96       1.0     0.559480     0.842662     0.672136    Uiso  ? Ni
   Ni97       1.0     0.673789     0.842606     0.557486    Uiso  ? Ni
   Ni98       1.0     0.330713     0.270623     0.786598    Uiso  ? Ni
   Ni99       1.0     0.559512     0.270979     0.786330    Uiso  ? Ni
   Ni100      1.0     0.786802     0.271906     0.785374    Uiso  ? Ni
   Ni101      1.0     0.330315     0.499914     0.788871    Uiso  ? Ni
   Ni102      1.0     0.445452     0.384683     0.787328    Uiso  ? Ni
   Ni103      1.0     0.560357     0.499889     0.787351    Uiso  ? Ni
   Ni104      1.0     0.445434     0.499946     0.899378    Uiso  ? Ni
   Ni105      1.0     0.559363     0.385624     0.899216    Uiso  ? Ni
   Ni106      1.0     0.673873     0.385536     0.786312    Uiso  ? Ni
   Ni107      1.0     0.787057     0.499926     0.785728    Uiso  ? Ni
   Ni108      1.0     0.673307     0.499936     0.899306    Uiso  ? Ni
   Ni109      1.0     0.330645     0.729350     0.786704    Uiso  ? Ni
   Ni110      1.0     0.445429     0.615112     0.787217    Uiso  ? Ni
   Ni111      1.0     0.559521     0.728944     0.786360    Uiso  ? Ni
   Ni112      1.0     0.559347     0.614253     0.899168    Uiso  ? Ni
   Ni113      1.0     0.673930     0.614323     0.786363    Uiso  ? Ni
   Ni114      1.0     0.786815     0.728003     0.785391    Uiso  ? Ni
   H1         1.0     0.445773     0.499390     0.558597    Uiso  ? H
   H2         1.0     0.330844     0.384032     0.327854    Uiso  ? H
   H3         1.0     0.215168     0.500864     0.328875    Uiso  ? H
   H4         1.0     0.447037     0.499790     0.327149    Uiso  ? H
   H5         1.0     0.445073     0.615953     0.441920    Uiso  ? H
   H6         1.0     0.329017     0.383314     0.557810    Uiso  ? H
   H7         1.0     0.329898     0.500001     0.674509    Uiso  ? H
   H8         1.0     0.561313     0.383821     0.557710    Uiso  ? H
   H9         1.0     0.328338     0.616614     0.557861    Uiso  ? H
   H10        1.0     0.561740     0.615914     0.558360    Uiso  ? H
