
#======================================================================
# CRYSTAL DATA
#----------------------------------------------------------------------
data_VESTA_phase_1

_chemical_name_common                  ' Ni H'
_cell_length_a                         15.492744
_cell_length_b                         15.492744
_cell_length_c                         15.492744
_cell_angle_alpha                      90.000000
_cell_angle_beta                       90.000000
_cell_angle_gamma                      90.000000
_cell_volume                           1.000000
_space_group_name_H-M_alt              'P 1'
_space_group_IT_number                 1

loop_
_space_group_symop_operation_xyz
   'x, y, z'

loop_
   _atom_site_label
   _atom_site_occupancy
   _atom_site_fract_x
   _atom_site_fract_y
   _atom_site_fract_z
   _atom_site_adp_type
   _atom_site_U_iso_or_equiv
   _atom_site_type_symbol
   Ni1        1.0     0.216777     0.271624     0.213875    Uiso  ? Ni
   Ni2        1.0     0.444688     0.271360     0.213705    Uiso  ? Ni
   Ni3        1.0     0.672890     0.271663     0.213901    Uiso  ? Ni
   Ni4        1.0     0.330751     0.499818     0.100929    Uiso  ? Ni
   Ni5        1.0     0.216488     0.499730     0.213855    Uiso  ? Ni
   Ni6        1.0     0.330491     0.385369     0.213688    Uiso  ? Ni
   Ni7        1.0     0.444733     0.385814     0.100882    Uiso  ? Ni
   Ni8        1.0     0.558699     0.499812     0.101088    Uiso  ? Ni
   Ni9        1.0     0.444445     0.499735     0.213609    Uiso  ? Ni
   Ni10       1.0     0.558938     0.385140     0.213555    Uiso  ? Ni
   Ni11       1.0     0.673446     0.499795     0.213393    Uiso  ? Ni
   Ni12       1.0     0.216741     0.728034     0.213861    Uiso  ? Ni
   Ni13       1.0     0.330500     0.614110     0.213870    Uiso  ? Ni
   Ni14       1.0     0.444724     0.613809     0.100955    Uiso  ? Ni
   Ni15       1.0     0.444745     0.728307     0.213690    Uiso  ? Ni
   Ni16       1.0     0.559034     0.614456     0.213499    Uiso  ? Ni
   Ni17       1.0     0.672951     0.728032     0.213845    Uiso  ? Ni
   Ni18       1.0     0.330364     0.270828     0.326833    Uiso  ? Ni
   Ni19       1.0     0.216137     0.270588     0.440763    Uiso  ? Ni
   Ni20       1.0     0.330409     0.157446     0.441218    Uiso  ? Ni
   Ni21       1.0     0.444707     0.157491     0.327266    Uiso  ? Ni
   Ni22       1.0     0.559094     0.270518     0.326519    Uiso  ? Ni
   Ni23       1.0     0.444289     0.269547     0.439954    Uiso  ? Ni
   Ni24       1.0     0.559065     0.157418     0.441090    Uiso  ? Ni
   Ni25       1.0     0.786854     0.271640     0.327646    Uiso  ? Ni
   Ni26       1.0     0.673957     0.270619     0.441075    Uiso  ? Ni
   Ni27       1.0     0.102306     0.499695     0.326919    Uiso  ? Ni
   Ni28       1.0     0.102311     0.385055     0.440928    Uiso  ? Ni
   Ni29       1.0     0.216156     0.384923     0.326599    Uiso  ? Ni
   Ni30       1.0     0.329849     0.499425     0.325659    Uiso  ? Ni
   Ni31       1.0     0.215336     0.499389     0.438236    Uiso  ? Ni
   Ni32       1.0     0.329309     0.383421     0.439013    Uiso  ? Ni
   Ni33       1.0     0.444266     0.384366     0.325938    Uiso  ? Ni
   Ni34       1.0     0.559607     0.499730     0.324116    Uiso  ? Ni
   Ni35       1.0     0.443246     0.499346     0.437053    Uiso  ? Ni
   Ni36       1.0     0.559929     0.382684     0.438391    Uiso  ? Ni
   Ni37       1.0     0.673929     0.385125     0.326568    Uiso  ? Ni
   Ni38       1.0     0.787457     0.499814     0.327014    Uiso  ? Ni
   Ni39       1.0     0.676340     0.499773     0.440250    Uiso  ? Ni
   Ni40       1.0     0.787756     0.385180     0.441145    Uiso  ? Ni
   Ni41       1.0     0.899946     0.499841     0.441806    Uiso  ? Ni
   Ni42       1.0     0.101992     0.614370     0.440627    Uiso  ? Ni
   Ni43       1.0     0.215893     0.614492     0.326340    Uiso  ? Ni
   Ni44       1.0     0.330393     0.729030     0.326554    Uiso  ? Ni
   Ni45       1.0     0.215884     0.729265     0.440536    Uiso  ? Ni
   Ni46       1.0     0.329377     0.615624     0.437677    Uiso  ? Ni
   Ni47       1.0     0.444565     0.615058     0.325703    Uiso  ? Ni
   Ni48       1.0     0.559233     0.729204     0.326397    Uiso  ? Ni
   Ni49       1.0     0.444635     0.730404     0.439663    Uiso  ? Ni
   Ni50       1.0     0.560314     0.616864     0.438119    Uiso  ? Ni
   Ni51       1.0     0.674033     0.614494     0.326454    Uiso  ? Ni
   Ni52       1.0     0.786887     0.728054     0.327608    Uiso  ? Ni
   Ni53       1.0     0.674056     0.729109     0.441013    Uiso  ? Ni
   Ni54       1.0     0.787734     0.614470     0.441133    Uiso  ? Ni
   Ni55       1.0     0.330442     0.842734     0.440857    Uiso  ? Ni
   Ni56       1.0     0.444818     0.842363     0.327112    Uiso  ? Ni
   Ni57       1.0     0.559250     0.842438     0.441003    Uiso  ? Ni
   Ni58       1.0     0.329591     0.269385     0.555023    Uiso  ? Ni
   Ni59       1.0     0.215550     0.270078     0.670445    Uiso  ? Ni
   Ni60       1.0     0.444527     0.157135     0.555370    Uiso  ? Ni
   Ni61       1.0     0.559983     0.268132     0.555629    Uiso  ? Ni
   Ni62       1.0     0.444852     0.268171     0.670898    Uiso  ? Ni
   Ni63       1.0     0.559463     0.156963     0.670445    Uiso  ? Ni
   Ni64       1.0     0.673578     0.157277     0.555768    Uiso  ? Ni
   Ni65       1.0     0.787502     0.270973     0.555850    Uiso  ? Ni
   Ni66       1.0     0.674230     0.270415     0.670573    Uiso  ? Ni
   Ni67       1.0     0.100000     0.499420     0.555313    Uiso  ? Ni
   Ni68       1.0     0.215018     0.382300     0.554974    Uiso  ? Ni
   Ni69       1.0     0.329090     0.497850     0.553394    Uiso  ? Ni
   Ni70       1.0     0.213125     0.499409     0.672643    Uiso  ? Ni
   Ni71       1.0     0.327951     0.382090     0.671503    Uiso  ? Ni
   Ni72       1.0     0.443380     0.381410     0.553464    Uiso  ? Ni
   Ni73       1.0     0.562585     0.499535     0.556752    Uiso  ? Ni
   Ni74       1.0     0.446587     0.499519     0.673736    Uiso  ? Ni
   Ni75       1.0     0.562233     0.383598     0.673146    Uiso  ? Ni
   Ni76       1.0     0.676683     0.384263     0.555811    Uiso  ? Ni
   Ni77       1.0     0.787845     0.499816     0.556147    Uiso  ? Ni
   Ni78       1.0     0.675405     0.499776     0.671716    Uiso  ? Ni
   Ni79       1.0     0.787374     0.385361     0.670622    Uiso  ? Ni
   Ni80       1.0     0.899920     0.385713     0.555956    Uiso  ? Ni
   Ni81       1.0     0.900000     0.499842     0.670089    Uiso  ? Ni
   Ni82       1.0     0.213397     0.616690     0.555031    Uiso  ? Ni
   Ni83       1.0     0.329674     0.732046     0.555081    Uiso  ? Ni
   Ni84       1.0     0.215271     0.729827     0.670742    Uiso  ? Ni
   Ni85       1.0     0.328016     0.617131     0.672955    Uiso  ? Ni
   Ni86       1.0     0.445019     0.617766     0.553487    Uiso  ? Ni
   Ni87       1.0     0.560400     0.731765     0.555637    Uiso  ? Ni
   Ni88       1.0     0.445233     0.731722     0.671257    Uiso  ? Ni
   Ni89       1.0     0.562555     0.615955     0.673378    Uiso  ? Ni
   Ni90       1.0     0.676691     0.615303     0.555814    Uiso  ? Ni
   Ni91       1.0     0.787479     0.728711     0.555851    Uiso  ? Ni
   Ni92       1.0     0.674316     0.729307     0.670635    Uiso  ? Ni
   Ni93       1.0     0.787354     0.614292     0.670636    Uiso  ? Ni
   Ni94       1.0     0.899896     0.613971     0.555956    Uiso  ? Ni
   Ni95       1.0     0.444968     0.843037     0.555407    Uiso  ? Ni
   Ni96       1.0     0.559648     0.842894     0.670547    Uiso  ? Ni
   Ni97       1.0     0.673720     0.842564     0.555772    Uiso  ? Ni
   Ni98       1.0     0.330213     0.270374     0.785258    Uiso  ? Ni
   Ni99       1.0     0.559610     0.270401     0.785284    Uiso  ? Ni
   Ni100      1.0     0.786904     0.271587     0.784139    Uiso  ? Ni
   Ni101      1.0     0.329693     0.499505     0.788054    Uiso  ? Ni
   Ni102      1.0     0.445032     0.384177     0.787772    Uiso  ? Ni
   Ni103      1.0     0.560889     0.499766     0.786628    Uiso  ? Ni
   Ni104      1.0     0.445344     0.499763     0.899118    Uiso  ? Ni
   Ni105      1.0     0.559673     0.385308     0.898547    Uiso  ? Ni
   Ni106      1.0     0.674300     0.385219     0.785343    Uiso  ? Ni
   Ni107      1.0     0.787238     0.499818     0.784580    Uiso  ? Ni
   Ni108      1.0     0.673604     0.499803     0.898408    Uiso  ? Ni
   Ni109      1.0     0.330230     0.729552     0.785609    Uiso  ? Ni
   Ni110      1.0     0.445308     0.615354     0.788044    Uiso  ? Ni
   Ni111      1.0     0.559762     0.729324     0.785417    Uiso  ? Ni
   Ni112      1.0     0.559778     0.614319     0.898626    Uiso  ? Ni
   Ni113      1.0     0.674395     0.614414     0.785448    Uiso  ? Ni
   Ni114      1.0     0.786936     0.728111     0.784176    Uiso  ? Ni
   H1         1.0     0.444882     0.499214     0.554494    Uiso  ? H
   H2         1.0     0.560277     0.499831     0.439026    Uiso  ? H
   H3         1.0     0.213758     0.498907     0.554963    Uiso  ? H
   H4         1.0     0.328977     0.499313     0.672184    Uiso  ? H
   H5         1.0     0.561109     0.383088     0.555748    Uiso  ? H
   H6         1.0     0.445020     0.383159     0.671498    Uiso  ? H
   H7         1.0     0.329069     0.616330     0.554432    Uiso  ? H
   H8         1.0     0.561653     0.616320     0.555788    Uiso  ? H
   H9         1.0     0.445651     0.616202     0.672056    Uiso  ? H
