
#======================================================================
# CRYSTAL DATA
#----------------------------------------------------------------------
data_VESTA_phase_1

_chemical_name_common                  ' Ni H'
_cell_length_a                         15.504775
_cell_length_b                         15.504775
_cell_length_c                         15.504775
_cell_angle_alpha                      90.000000
_cell_angle_beta                       90.000000
_cell_angle_gamma                      90.000000
_cell_volume                           1.000000
_space_group_name_H-M_alt              'P 1'
_space_group_IT_number                 1

loop_
_space_group_symop_operation_xyz
   'x, y, z'

loop_
   _atom_site_label
   _atom_site_occupancy
   _atom_site_fract_x
   _atom_site_fract_y
   _atom_site_fract_z
   _atom_site_adp_type
   _atom_site_U_iso_or_equiv
   _atom_site_type_symbol
   Ni1        1.0     0.216955     0.271261     0.214335    Uiso  ? Ni
   Ni2        1.0     0.445443     0.270973     0.214126    Uiso  ? Ni
   Ni3        1.0     0.673398     0.271790     0.214932    Uiso  ? Ni
   Ni4        1.0     0.330827     0.499744     0.100905    Uiso  ? Ni
   Ni5        1.0     0.215994     0.500105     0.213658    Uiso  ? Ni
   Ni6        1.0     0.330984     0.384789     0.213533    Uiso  ? Ni
   Ni7        1.0     0.445440     0.385467     0.101133    Uiso  ? Ni
   Ni8        1.0     0.559817     0.500017     0.101298    Uiso  ? Ni
   Ni9        1.0     0.445617     0.499816     0.211970    Uiso  ? Ni
   Ni10       1.0     0.560103     0.385068     0.214072    Uiso  ? Ni
   Ni11       1.0     0.674237     0.500129     0.214152    Uiso  ? Ni
   Ni12       1.0     0.216741     0.728871     0.214512    Uiso  ? Ni
   Ni13       1.0     0.330818     0.614951     0.212376    Uiso  ? Ni
   Ni14       1.0     0.445640     0.614568     0.100869    Uiso  ? Ni
   Ni15       1.0     0.445675     0.729318     0.214122    Uiso  ? Ni
   Ni16       1.0     0.560337     0.615121     0.213773    Uiso  ? Ni
   Ni17       1.0     0.673370     0.728410     0.214972    Uiso  ? Ni
   Ni18       1.0     0.330970     0.270214     0.327451    Uiso  ? Ni
   Ni19       1.0     0.216345     0.268846     0.442286    Uiso  ? Ni
   Ni20       1.0     0.331291     0.157182     0.442465    Uiso  ? Ni
   Ni21       1.0     0.445367     0.157824     0.328383    Uiso  ? Ni
   Ni22       1.0     0.560089     0.270276     0.327703    Uiso  ? Ni
   Ni23       1.0     0.445656     0.269134     0.442007    Uiso  ? Ni
   Ni24       1.0     0.559670     0.157478     0.442421    Uiso  ? Ni
   Ni25       1.0     0.787022     0.271871     0.328886    Uiso  ? Ni
   Ni26       1.0     0.674244     0.270790     0.442455    Uiso  ? Ni
   Ni27       1.0     0.101980     0.500130     0.327806    Uiso  ? Ni
   Ni28       1.0     0.100389     0.385354     0.442370    Uiso  ? Ni
   Ni29       1.0     0.215710     0.384558     0.325757    Uiso  ? Ni
   Ni30       1.0     0.328896     0.498453     0.326213    Uiso  ? Ni
   Ni31       1.0     0.214938     0.501842     0.440694    Uiso  ? Ni
   Ni32       1.0     0.331966     0.383189     0.440325    Uiso  ? Ni
   Ni33       1.0     0.445865     0.382590     0.326523    Uiso  ? Ni
   Ni34       1.0     0.562329     0.500178     0.325788    Uiso  ? Ni
   Ni35       1.0     0.444639     0.500558     0.441799    Uiso  ? Ni
   Ni36       1.0     0.560779     0.382858     0.440248    Uiso  ? Ni
   Ni37       1.0     0.674625     0.385095     0.327874    Uiso  ? Ni
   Ni38       1.0     0.787296     0.500237     0.328348    Uiso  ? Ni
   Ni39       1.0     0.676824     0.500514     0.442099    Uiso  ? Ni
   Ni40       1.0     0.787701     0.385547     0.442495    Uiso  ? Ni
   Ni41       1.0     0.899745     0.500228     0.442920    Uiso  ? Ni
   Ni42       1.0     0.101570     0.615347     0.442652    Uiso  ? Ni
   Ni43       1.0     0.214154     0.615666     0.327459    Uiso  ? Ni
   Ni44       1.0     0.330845     0.731412     0.328104    Uiso  ? Ni
   Ni45       1.0     0.215921     0.729876     0.442664    Uiso  ? Ni
   Ni46       1.0     0.330426     0.617144     0.442474    Uiso  ? Ni
   Ni47       1.0     0.447433     0.617253     0.327288    Uiso  ? Ni
   Ni48       1.0     0.560405     0.729879     0.328183    Uiso  ? Ni
   Ni49       1.0     0.445975     0.730762     0.442775    Uiso  ? Ni
   Ni50       1.0     0.561342     0.617984     0.442207    Uiso  ? Ni
   Ni51       1.0     0.674250     0.615233     0.328207    Uiso  ? Ni
   Ni52       1.0     0.786878     0.728296     0.329006    Uiso  ? Ni
   Ni53       1.0     0.674141     0.729298     0.442842    Uiso  ? Ni
   Ni54       1.0     0.787366     0.614916     0.442823    Uiso  ? Ni
   Ni55       1.0     0.331068     0.842848     0.443012    Uiso  ? Ni
   Ni56       1.0     0.445718     0.842502     0.328744    Uiso  ? Ni
   Ni57       1.0     0.559758     0.842230     0.442969    Uiso  ? Ni
   Ni58       1.0     0.330852     0.268018     0.557771    Uiso  ? Ni
   Ni59       1.0     0.216490     0.270481     0.672576    Uiso  ? Ni
   Ni60       1.0     0.445419     0.157152     0.557295    Uiso  ? Ni
   Ni61       1.0     0.560402     0.268173     0.557257    Uiso  ? Ni
   Ni62       1.0     0.445159     0.269851     0.672836    Uiso  ? Ni
   Ni63       1.0     0.559469     0.157667     0.671748    Uiso  ? Ni
   Ni64       1.0     0.673787     0.157599     0.557057    Uiso  ? Ni
   Ni65       1.0     0.787427     0.271431     0.557021    Uiso  ? Ni
   Ni66       1.0     0.674083     0.271004     0.671690    Uiso  ? Ni
   Ni67       1.0     0.100000     0.500474     0.557785    Uiso  ? Ni
   Ni68       1.0     0.214191     0.383091     0.559288    Uiso  ? Ni
   Ni69       1.0     0.329956     0.500386     0.558713    Uiso  ? Ni
   Ni70       1.0     0.215721     0.500466     0.674904    Uiso  ? Ni
   Ni71       1.0     0.330476     0.384167     0.675198    Uiso  ? Ni
   Ni72       1.0     0.445861     0.382121     0.558146    Uiso  ? Ni
   Ni73       1.0     0.562741     0.502123     0.557657    Uiso  ? Ni
   Ni74       1.0     0.443950     0.500608     0.675222    Uiso  ? Ni
   Ni75       1.0     0.560389     0.383294     0.674433    Uiso  ? Ni
   Ni76       1.0     0.676485     0.384803     0.557160    Uiso  ? Ni
   Ni77       1.0     0.787840     0.500572     0.557144    Uiso  ? Ni
   Ni78       1.0     0.676465     0.500551     0.672477    Uiso  ? Ni
   Ni79       1.0     0.787662     0.385638     0.671560    Uiso  ? Ni
   Ni80       1.0     0.899802     0.386165     0.556963    Uiso  ? Ni
   Ni81       1.0     0.899882     0.500221     0.670988    Uiso  ? Ni
   Ni82       1.0     0.213834     0.617641     0.558128    Uiso  ? Ni
   Ni83       1.0     0.330877     0.731991     0.557864    Uiso  ? Ni
   Ni84       1.0     0.216468     0.729523     0.672261    Uiso  ? Ni
   Ni85       1.0     0.330517     0.616262     0.674639    Uiso  ? Ni
   Ni86       1.0     0.447437     0.618547     0.558224    Uiso  ? Ni
   Ni87       1.0     0.560635     0.730282     0.557435    Uiso  ? Ni
   Ni88       1.0     0.445435     0.730061     0.672465    Uiso  ? Ni
   Ni89       1.0     0.560504     0.617555     0.672972    Uiso  ? Ni
   Ni90       1.0     0.674992     0.616098     0.557341    Uiso  ? Ni
   Ni91       1.0     0.787155     0.728581     0.557085    Uiso  ? Ni
   Ni92       1.0     0.673903     0.729048     0.671495    Uiso  ? Ni
   Ni93       1.0     0.787411     0.614843     0.671309    Uiso  ? Ni
   Ni94       1.0     0.900000     0.614268     0.556971    Uiso  ? Ni
   Ni95       1.0     0.445801     0.842528     0.557405    Uiso  ? Ni
   Ni96       1.0     0.559505     0.842038     0.671409    Uiso  ? Ni
   Ni97       1.0     0.673484     0.842144     0.557144    Uiso  ? Ni
   Ni98       1.0     0.330980     0.271002     0.786158    Uiso  ? Ni
   Ni99       1.0     0.559474     0.270939     0.786177    Uiso  ? Ni
   Ni100      1.0     0.786857     0.272097     0.784964    Uiso  ? Ni
   Ni101      1.0     0.330506     0.500283     0.787257    Uiso  ? Ni
   Ni102      1.0     0.445112     0.385032     0.787028    Uiso  ? Ni
   Ni103      1.0     0.559913     0.500508     0.788240    Uiso  ? Ni
   Ni104      1.0     0.444937     0.500234     0.898992    Uiso  ? Ni
   Ni105      1.0     0.559342     0.385675     0.898992    Uiso  ? Ni
   Ni106      1.0     0.674082     0.385630     0.786041    Uiso  ? Ni
   Ni107      1.0     0.787428     0.500245     0.785537    Uiso  ? Ni
   Ni108      1.0     0.673555     0.500220     0.899057    Uiso  ? Ni
   Ni109      1.0     0.331060     0.729151     0.785953    Uiso  ? Ni
   Ni110      1.0     0.445337     0.615455     0.786662    Uiso  ? Ni
   Ni111      1.0     0.559486     0.729063     0.785836    Uiso  ? Ni
   Ni112      1.0     0.559321     0.614745     0.899131    Uiso  ? Ni
   Ni113      1.0     0.673819     0.614831     0.785749    Uiso  ? Ni
   Ni114      1.0     0.786786     0.728119     0.784891    Uiso  ? Ni
   H1         1.0     0.445539     0.500839     0.558009    Uiso  ? H
   H2         1.0     0.215973     0.385280     0.441353    Uiso  ? H
   H3         1.0     0.445346     0.499055     0.326817    Uiso  ? H
   H4         1.0     0.561660     0.501032     0.441514    Uiso  ? H
   H5         1.0     0.330223     0.615100     0.328029    Uiso  ? H
   H6         1.0     0.330863     0.383527     0.558233    Uiso  ? H
   H7         1.0     0.214209     0.500872     0.558198    Uiso  ? H
   H8         1.0     0.561496     0.383759     0.557235    Uiso  ? H
   H9         1.0     0.560653     0.500870     0.673785    Uiso  ? H
   H10        1.0     0.330757     0.616926     0.558240    Uiso  ? H
