
#======================================================================
# CRYSTAL DATA
#----------------------------------------------------------------------
data_VESTA_phase_1

_chemical_name_common                  ' Ni H'
_cell_length_a                         15.504391
_cell_length_b                         15.504391
_cell_length_c                         15.504391
_cell_angle_alpha                      90.000000
_cell_angle_beta                       90.000000
_cell_angle_gamma                      90.000000
_cell_volume                           1.000000
_space_group_name_H-M_alt              'P 1'
_space_group_IT_number                 1

loop_
_space_group_symop_operation_xyz
   'x, y, z'

loop_
   _atom_site_label
   _atom_site_occupancy
   _atom_site_fract_x
   _atom_site_fract_y
   _atom_site_fract_z
   _atom_site_adp_type
   _atom_site_U_iso_or_equiv
   _atom_site_type_symbol
   Ni1        1.0     0.217141     0.270616     0.214038    Uiso  ? Ni
   Ni2        1.0     0.445918     0.270425     0.213903    Uiso  ? Ni
   Ni3        1.0     0.673768     0.271624     0.215021    Uiso  ? Ni
   Ni4        1.0     0.331546     0.499652     0.100316    Uiso  ? Ni
   Ni5        1.0     0.216342     0.499643     0.211535    Uiso  ? Ni
   Ni6        1.0     0.331426     0.384250     0.212948    Uiso  ? Ni
   Ni7        1.0     0.445931     0.385208     0.100997    Uiso  ? Ni
   Ni8        1.0     0.560337     0.499967     0.101076    Uiso  ? Ni
   Ni9        1.0     0.446434     0.499930     0.211476    Uiso  ? Ni
   Ni10       1.0     0.560792     0.384890     0.213739    Uiso  ? Ni
   Ni11       1.0     0.674586     0.500038     0.214167    Uiso  ? Ni
   Ni12       1.0     0.217021     0.729503     0.213976    Uiso  ? Ni
   Ni13       1.0     0.331770     0.615264     0.211916    Uiso  ? Ni
   Ni14       1.0     0.446221     0.614698     0.100584    Uiso  ? Ni
   Ni15       1.0     0.446243     0.729508     0.214071    Uiso  ? Ni
   Ni16       1.0     0.560818     0.615110     0.213797    Uiso  ? Ni
   Ni17       1.0     0.673713     0.728369     0.215090    Uiso  ? Ni
   Ni18       1.0     0.331339     0.269637     0.327834    Uiso  ? Ni
   Ni19       1.0     0.216319     0.268372     0.443353    Uiso  ? Ni
   Ni20       1.0     0.331272     0.156913     0.443013    Uiso  ? Ni
   Ni21       1.0     0.445828     0.157313     0.328400    Uiso  ? Ni
   Ni22       1.0     0.560835     0.270142     0.328139    Uiso  ? Ni
   Ni23       1.0     0.446164     0.267500     0.442625    Uiso  ? Ni
   Ni24       1.0     0.560384     0.157361     0.443062    Uiso  ? Ni
   Ni25       1.0     0.787219     0.271783     0.329139    Uiso  ? Ni
   Ni26       1.0     0.674725     0.270659     0.443048    Uiso  ? Ni
   Ni27       1.0     0.100103     0.499690     0.328165    Uiso  ? Ni
   Ni28       1.0     0.100309     0.384655     0.443500    Uiso  ? Ni
   Ni29       1.0     0.215887     0.382460     0.326237    Uiso  ? Ni
   Ni30       1.0     0.331008     0.498355     0.326844    Uiso  ? Ni
   Ni31       1.0     0.214805     0.500000     0.444820    Uiso  ? Ni
   Ni32       1.0     0.330769     0.382620     0.442905    Uiso  ? Ni
   Ni33       1.0     0.446669     0.382213     0.325694    Uiso  ? Ni
   Ni34       1.0     0.563105     0.500066     0.326089    Uiso  ? Ni
   Ni35       1.0     0.445762     0.501632     0.442554    Uiso  ? Ni
   Ni36       1.0     0.563124     0.382881     0.442596    Uiso  ? Ni
   Ni37       1.0     0.674992     0.384969     0.328174    Uiso  ? Ni
   Ni38       1.0     0.787368     0.500094     0.328642    Uiso  ? Ni
   Ni39       1.0     0.677054     0.500324     0.442927    Uiso  ? Ni
   Ni40       1.0     0.787451     0.385461     0.443078    Uiso  ? Ni
   Ni41       1.0     0.899721     0.500030     0.443260    Uiso  ? Ni
   Ni42       1.0     0.100000     0.615298     0.443788    Uiso  ? Ni
   Ni43       1.0     0.214734     0.617055     0.326627    Uiso  ? Ni
   Ni44       1.0     0.331713     0.731817     0.328324    Uiso  ? Ni
   Ni45       1.0     0.216355     0.731631     0.443739    Uiso  ? Ni
   Ni46       1.0     0.332246     0.617523     0.444623    Uiso  ? Ni
   Ni47       1.0     0.448346     0.617789     0.327468    Uiso  ? Ni
   Ni48       1.0     0.560969     0.729918     0.328463    Uiso  ? Ni
   Ni49       1.0     0.446601     0.731112     0.442970    Uiso  ? Ni
   Ni50       1.0     0.562014     0.617659     0.442928    Uiso  ? Ni
   Ni51       1.0     0.674564     0.615121     0.328477    Uiso  ? Ni
   Ni52       1.0     0.787126     0.728199     0.329188    Uiso  ? Ni
   Ni53       1.0     0.674507     0.729200     0.443113    Uiso  ? Ni
   Ni54       1.0     0.787577     0.614707     0.443073    Uiso  ? Ni
   Ni55       1.0     0.331688     0.843087     0.443448    Uiso  ? Ni
   Ni56       1.0     0.446257     0.842699     0.328840    Uiso  ? Ni
   Ni57       1.0     0.560225     0.842363     0.443179    Uiso  ? Ni
   Ni58       1.0     0.330601     0.269117     0.557875    Uiso  ? Ni
   Ni59       1.0     0.216169     0.270105     0.672303    Uiso  ? Ni
   Ni60       1.0     0.445773     0.157031     0.557493    Uiso  ? Ni
   Ni61       1.0     0.561197     0.269799     0.557711    Uiso  ? Ni
   Ni62       1.0     0.446013     0.268316     0.672476    Uiso  ? Ni
   Ni63       1.0     0.560207     0.157419     0.671551    Uiso  ? Ni
   Ni64       1.0     0.673893     0.157756     0.557283    Uiso  ? Ni
   Ni65       1.0     0.787300     0.271688     0.557270    Uiso  ? Ni
   Ni66       1.0     0.674419     0.271061     0.671570    Uiso  ? Ni
   Ni67       1.0     0.101519     0.499981     0.558491    Uiso  ? Ni
   Ni68       1.0     0.215199     0.383865     0.559978    Uiso  ? Ni
   Ni69       1.0     0.328753     0.500082     0.557391    Uiso  ? Ni
   Ni70       1.0     0.213751     0.500013     0.672943    Uiso  ? Ni
   Ni71       1.0     0.328905     0.382744     0.673114    Uiso  ? Ni
   Ni72       1.0     0.446467     0.382166     0.557920    Uiso  ? Ni
   Ni73       1.0     0.563662     0.500404     0.559265    Uiso  ? Ni
   Ni74       1.0     0.447541     0.500282     0.674547    Uiso  ? Ni
   Ni75       1.0     0.563197     0.384338     0.672742    Uiso  ? Ni
   Ni76       1.0     0.675402     0.384903     0.557657    Uiso  ? Ni
   Ni77       1.0     0.787440     0.500090     0.557680    Uiso  ? Ni
   Ni78       1.0     0.675336     0.500098     0.672396    Uiso  ? Ni
   Ni79       1.0     0.787163     0.385767     0.671456    Uiso  ? Ni
   Ni80       1.0     0.899936     0.386104     0.557198    Uiso  ? Ni
   Ni81       1.0     0.900000     0.500033     0.671093    Uiso  ? Ni
   Ni82       1.0     0.215223     0.616169     0.560087    Uiso  ? Ni
   Ni83       1.0     0.330980     0.730904     0.557971    Uiso  ? Ni
   Ni84       1.0     0.216259     0.729896     0.672258    Uiso  ? Ni
   Ni85       1.0     0.329201     0.617287     0.672668    Uiso  ? Ni
   Ni86       1.0     0.446916     0.618355     0.556805    Uiso  ? Ni
   Ni87       1.0     0.561108     0.730099     0.557586    Uiso  ? Ni
   Ni88       1.0     0.446115     0.731596     0.672228    Uiso  ? Ni
   Ni89       1.0     0.563084     0.615871     0.672556    Uiso  ? Ni
   Ni90       1.0     0.675235     0.615317     0.557481    Uiso  ? Ni
   Ni91       1.0     0.787307     0.728352     0.557256    Uiso  ? Ni
   Ni92       1.0     0.674402     0.728979     0.671533    Uiso  ? Ni
   Ni93       1.0     0.787134     0.614324     0.671404    Uiso  ? Ni
   Ni94       1.0     0.899989     0.613964     0.557209    Uiso  ? Ni
   Ni95       1.0     0.445925     0.842694     0.557289    Uiso  ? Ni
   Ni96       1.0     0.560219     0.842544     0.671499    Uiso  ? Ni
   Ni97       1.0     0.673858     0.842197     0.557267    Uiso  ? Ni
   Ni98       1.0     0.330981     0.270704     0.786263    Uiso  ? Ni
   Ni99       1.0     0.560229     0.271149     0.785860    Uiso  ? Ni
   Ni100      1.0     0.787012     0.272066     0.784995    Uiso  ? Ni
   Ni101      1.0     0.330275     0.500067     0.788454    Uiso  ? Ni
   Ni102      1.0     0.446012     0.384680     0.788485    Uiso  ? Ni
   Ni103      1.0     0.561348     0.500078     0.786735    Uiso  ? Ni
   Ni104      1.0     0.445896     0.500033     0.899684    Uiso  ? Ni
   Ni105      1.0     0.560146     0.385776     0.899281    Uiso  ? Ni
   Ni106      1.0     0.674349     0.385658     0.785867    Uiso  ? Ni
   Ni107      1.0     0.787222     0.500044     0.785289    Uiso  ? Ni
   Ni108      1.0     0.673757     0.500032     0.899009    Uiso  ? Ni
   Ni109      1.0     0.331048     0.729259     0.786148    Uiso  ? Ni
   Ni110      1.0     0.446018     0.615455     0.788517    Uiso  ? Ni
   Ni111      1.0     0.560227     0.728886     0.785850    Uiso  ? Ni
   Ni112      1.0     0.560149     0.614286     0.899312    Uiso  ? Ni
   Ni113      1.0     0.674307     0.614428     0.785833    Uiso  ? Ni
   Ni114      1.0     0.787009     0.727965     0.784987    Uiso  ? Ni
   H1         1.0     0.445744     0.500788     0.557514    Uiso  ? H
   H2         1.0     0.215372     0.499354     0.327222    Uiso  ? H
   H3         1.0     0.216124     0.384157     0.443840    Uiso  ? H
   H4         1.0     0.446830     0.499858     0.326114    Uiso  ? H
   H5         1.0     0.446089     0.383359     0.441974    Uiso  ? H
   H6         1.0     0.562766     0.500790     0.442778    Uiso  ? H
   H7         1.0     0.332095     0.615877     0.328053    Uiso  ? H
   H8         1.0     0.216009     0.615776     0.444531    Uiso  ? H
   H9         1.0     0.329105     0.499997     0.673152    Uiso  ? H
   H10        1.0     0.446508     0.383614     0.673423    Uiso  ? H
   H11        1.0     0.446530     0.616692     0.673144    Uiso  ? H
