
#======================================================================
# CRYSTAL DATA
#----------------------------------------------------------------------
data_VESTA_phase_1

_chemical_name_common                  ' Ni H'
_cell_length_a                         15.514490
_cell_length_b                         15.514490
_cell_length_c                         15.514490
_cell_angle_alpha                      90.000000
_cell_angle_beta                       90.000000
_cell_angle_gamma                      90.000000
_cell_volume                           1.000000
_space_group_name_H-M_alt              'P 1'
_space_group_IT_number                 1

loop_
_space_group_symop_operation_xyz
   'x, y, z'

loop_
   _atom_site_label
   _atom_site_occupancy
   _atom_site_fract_x
   _atom_site_fract_y
   _atom_site_fract_z
   _atom_site_adp_type
   _atom_site_U_iso_or_equiv
   _atom_site_type_symbol
   Ni1        1.0     0.217323     0.270578     0.214248    Uiso  ? Ni
   Ni2        1.0     0.446200     0.270320     0.213984    Uiso  ? Ni
   Ni3        1.0     0.673959     0.271602     0.215264    Uiso  ? Ni
   Ni4        1.0     0.331650     0.499625     0.100760    Uiso  ? Ni
   Ni5        1.0     0.216316     0.499917     0.211896    Uiso  ? Ni
   Ni6        1.0     0.331605     0.384066     0.213059    Uiso  ? Ni
   Ni7        1.0     0.446136     0.385104     0.101268    Uiso  ? Ni
   Ni8        1.0     0.560600     0.499893     0.101347    Uiso  ? Ni
   Ni9        1.0     0.446745     0.499617     0.211339    Uiso  ? Ni
   Ni10       1.0     0.561127     0.384750     0.213824    Uiso  ? Ni
   Ni11       1.0     0.674873     0.499919     0.214337    Uiso  ? Ni
   Ni12       1.0     0.217031     0.729351     0.214396    Uiso  ? Ni
   Ni13       1.0     0.331341     0.615391     0.211954    Uiso  ? Ni
   Ni14       1.0     0.446324     0.614668     0.101094    Uiso  ? Ni
   Ni15       1.0     0.446335     0.729789     0.213925    Uiso  ? Ni
   Ni16       1.0     0.561351     0.615047     0.213672    Uiso  ? Ni
   Ni17       1.0     0.673969     0.728379     0.215262    Uiso  ? Ni
   Ni18       1.0     0.331603     0.269310     0.327584    Uiso  ? Ni
   Ni19       1.0     0.216316     0.267954     0.443164    Uiso  ? Ni
   Ni20       1.0     0.331658     0.156909     0.443132    Uiso  ? Ni
   Ni21       1.0     0.446122     0.157452     0.328654    Uiso  ? Ni
   Ni22       1.0     0.561123     0.270020     0.328244    Uiso  ? Ni
   Ni23       1.0     0.446722     0.267573     0.443001    Uiso  ? Ni
   Ni24       1.0     0.560614     0.157450     0.443329    Uiso  ? Ni
   Ni25       1.0     0.787308     0.271766     0.329409    Uiso  ? Ni
   Ni26       1.0     0.674943     0.270505     0.443315    Uiso  ? Ni
   Ni27       1.0     0.100285     0.500073     0.328237    Uiso  ? Ni
   Ni28       1.0     0.100337     0.384705     0.443261    Uiso  ? Ni
   Ni29       1.0     0.215840     0.382525     0.326015    Uiso  ? Ni
   Ni30       1.0     0.330964     0.498353     0.325753    Uiso  ? Ni
   Ni31       1.0     0.214519     0.501620     0.443223    Uiso  ? Ni
   Ni32       1.0     0.331019     0.382124     0.441527    Uiso  ? Ni
   Ni33       1.0     0.447157     0.381864     0.325420    Uiso  ? Ni
   Ni34       1.0     0.563551     0.499682     0.325995    Uiso  ? Ni
   Ni35       1.0     0.445989     0.500031     0.442788    Uiso  ? Ni
   Ni36       1.0     0.563544     0.382235     0.442688    Uiso  ? Ni
   Ni37       1.0     0.675242     0.384794     0.328344    Uiso  ? Ni
   Ni38       1.0     0.787550     0.499984     0.328826    Uiso  ? Ni
   Ni39       1.0     0.677646     0.499951     0.442946    Uiso  ? Ni
   Ni40       1.0     0.787555     0.385261     0.443375    Uiso  ? Ni
   Ni41       1.0     0.899689     0.499996     0.443436    Uiso  ? Ni
   Ni42       1.0     0.101547     0.615812     0.443555    Uiso  ? Ni
   Ni43       1.0     0.214232     0.617449     0.327635    Uiso  ? Ni
   Ni44       1.0     0.331248     0.732046     0.328135    Uiso  ? Ni
   Ni45       1.0     0.215783     0.730669     0.443549    Uiso  ? Ni
   Ni46       1.0     0.329276     0.617878     0.443272    Uiso  ? Ni
   Ni47       1.0     0.448330     0.617672     0.325795    Uiso  ? Ni
   Ni48       1.0     0.561382     0.730154     0.328357    Uiso  ? Ni
   Ni49       1.0     0.446659     0.732423     0.443418    Uiso  ? Ni
   Ni50       1.0     0.563865     0.617781     0.443026    Uiso  ? Ni
   Ni51       1.0     0.675114     0.615068     0.328364    Uiso  ? Ni
   Ni52       1.0     0.787254     0.728189     0.329416    Uiso  ? Ni
   Ni53       1.0     0.675036     0.729542     0.443393    Uiso  ? Ni
   Ni54       1.0     0.787520     0.614706     0.443373    Uiso  ? Ni
   Ni55       1.0     0.331223     0.843091     0.443572    Uiso  ? Ni
   Ni56       1.0     0.446309     0.842823     0.328832    Uiso  ? Ni
   Ni57       1.0     0.560638     0.842571     0.443461    Uiso  ? Ni
   Ni58       1.0     0.331485     0.267819     0.558862    Uiso  ? Ni
   Ni59       1.0     0.216900     0.270235     0.673225    Uiso  ? Ni
   Ni60       1.0     0.446361     0.157181     0.558191    Uiso  ? Ni
   Ni61       1.0     0.561451     0.269459     0.558210    Uiso  ? Ni
   Ni62       1.0     0.446099     0.269696     0.673465    Uiso  ? Ni
   Ni63       1.0     0.560068     0.157935     0.671961    Uiso  ? Ni
   Ni64       1.0     0.674016     0.157847     0.557635    Uiso  ? Ni
   Ni65       1.0     0.787387     0.271631     0.557567    Uiso  ? Ni
   Ni66       1.0     0.674363     0.271105     0.671959    Uiso  ? Ni
   Ni67       1.0     0.100000     0.500372     0.558891    Uiso  ? Ni
   Ni68       1.0     0.214288     0.382616     0.560571    Uiso  ? Ni
   Ni69       1.0     0.330553     0.500024     0.560588    Uiso  ? Ni
   Ni70       1.0     0.215967     0.500303     0.675631    Uiso  ? Ni
   Ni71       1.0     0.331090     0.383848     0.675901    Uiso  ? Ni
   Ni72       1.0     0.448318     0.381664     0.560751    Uiso  ? Ni
   Ni73       1.0     0.563933     0.500002     0.558721    Uiso  ? Ni
   Ni74       1.0     0.444916     0.500030     0.676206    Uiso  ? Ni
   Ni75       1.0     0.561417     0.382965     0.673642    Uiso  ? Ni
   Ni76       1.0     0.675439     0.384423     0.558113    Uiso  ? Ni
   Ni77       1.0     0.787807     0.499981     0.557709    Uiso  ? Ni
   Ni78       1.0     0.676833     0.499992     0.672791    Uiso  ? Ni
   Ni79       1.0     0.787656     0.385450     0.671710    Uiso  ? Ni
   Ni80       1.0     0.900000     0.386037     0.557373    Uiso  ? Ni
   Ni81       1.0     0.899983     0.499993     0.671290    Uiso  ? Ni
   Ni82       1.0     0.213909     0.617855     0.559469    Uiso  ? Ni
   Ni83       1.0     0.331086     0.732211     0.558941    Uiso  ? Ni
   Ni84       1.0     0.216789     0.729615     0.672991    Uiso  ? Ni
   Ni85       1.0     0.330787     0.616212     0.675625    Uiso  ? Ni
   Ni86       1.0     0.448199     0.618369     0.560895    Uiso  ? Ni
   Ni87       1.0     0.561497     0.730569     0.558331    Uiso  ? Ni
   Ni88       1.0     0.446001     0.730327     0.673442    Uiso  ? Ni
   Ni89       1.0     0.561427     0.617055     0.673647    Uiso  ? Ni
   Ni90       1.0     0.675554     0.615566     0.558228    Uiso  ? Ni
   Ni91       1.0     0.787429     0.728382     0.557606    Uiso  ? Ni
   Ni92       1.0     0.674400     0.728917     0.672004    Uiso  ? Ni
   Ni93       1.0     0.787697     0.614541     0.671752    Uiso  ? Ni
   Ni94       1.0     0.899989     0.613951     0.557373    Uiso  ? Ni
   Ni95       1.0     0.446268     0.842833     0.558296    Uiso  ? Ni
   Ni96       1.0     0.560051     0.842084     0.671995    Uiso  ? Ni
   Ni97       1.0     0.674053     0.842182     0.557695    Uiso  ? Ni
   Ni98       1.0     0.331565     0.270880     0.786485    Uiso  ? Ni
   Ni99       1.0     0.560056     0.271115     0.786194    Uiso  ? Ni
   Ni100      1.0     0.787068     0.272109     0.785179    Uiso  ? Ni
   Ni101      1.0     0.331018     0.500067     0.787548    Uiso  ? Ni
   Ni102      1.0     0.446015     0.384759     0.787017    Uiso  ? Ni
   Ni103      1.0     0.560547     0.500022     0.788382    Uiso  ? Ni
   Ni104      1.0     0.445461     0.500031     0.899010    Uiso  ? Ni
   Ni105      1.0     0.559786     0.385552     0.899240    Uiso  ? Ni
   Ni106      1.0     0.674291     0.385465     0.786090    Uiso  ? Ni
   Ni107      1.0     0.787665     0.499997     0.785780    Uiso  ? Ni
   Ni108      1.0     0.673903     0.500012     0.899238    Uiso  ? Ni
   Ni109      1.0     0.331491     0.729114     0.786419    Uiso  ? Ni
   Ni110      1.0     0.445915     0.615290     0.786922    Uiso  ? Ni
   Ni111      1.0     0.560024     0.728895     0.786173    Uiso  ? Ni
   Ni112      1.0     0.559752     0.614479     0.899208    Uiso  ? Ni
   Ni113      1.0     0.674300     0.614546     0.786088    Uiso  ? Ni
   Ni114      1.0     0.787089     0.727902     0.785198    Uiso  ? Ni
   H1         1.0     0.446740     0.500011     0.559717    Uiso  ? H
   H2         1.0     0.215516     0.499988     0.327513    Uiso  ? H
   H3         1.0     0.215650     0.384095     0.442878    Uiso  ? H
   H4         1.0     0.446884     0.499315     0.326115    Uiso  ? H
   H5         1.0     0.446971     0.382908     0.442695    Uiso  ? H
   H6         1.0     0.563471     0.500045     0.442596    Uiso  ? H
   H7         1.0     0.330876     0.615911     0.327632    Uiso  ? H
   H8         1.0     0.447081     0.617140     0.443391    Uiso  ? H
   H9         1.0     0.331377     0.383388     0.559576    Uiso  ? H
   H10        1.0     0.214675     0.500640     0.559473    Uiso  ? H
   H11        1.0     0.561329     0.500009     0.673870    Uiso  ? H
   H12        1.0     0.330729     0.616641     0.559512    Uiso  ? H
