
#======================================================================
# CRYSTAL DATA
#----------------------------------------------------------------------
data_VESTA_phase_1

_chemical_name_common                  ' Ni H'
_cell_length_a                         15.518737
_cell_length_b                         15.518737
_cell_length_c                         15.518737
_cell_angle_alpha                      90.000000
_cell_angle_beta                       90.000000
_cell_angle_gamma                      90.000000
_cell_volume                           1.000000
_space_group_name_H-M_alt              'P 1'
_space_group_IT_number                 1

loop_
_space_group_symop_operation_xyz
   'x, y, z'

loop_
   _atom_site_label
   _atom_site_occupancy
   _atom_site_fract_x
   _atom_site_fract_y
   _atom_site_fract_z
   _atom_site_adp_type
   _atom_site_U_iso_or_equiv
   _atom_site_type_symbol
   Ni1        1.0     0.217391     0.270514     0.214047    Uiso  ? Ni
   Ni2        1.0     0.446242     0.270214     0.213744    Uiso  ? Ni
   Ni3        1.0     0.673987     0.271516     0.215038    Uiso  ? Ni
   Ni4        1.0     0.331702     0.499525     0.100590    Uiso  ? Ni
   Ni5        1.0     0.216365     0.499813     0.211667    Uiso  ? Ni
   Ni6        1.0     0.331647     0.383965     0.212835    Uiso  ? Ni
   Ni7        1.0     0.446180     0.385013     0.101102    Uiso  ? Ni
   Ni8        1.0     0.560643     0.499797     0.101180    Uiso  ? Ni
   Ni9        1.0     0.446793     0.499506     0.211079    Uiso  ? Ni
   Ni10       1.0     0.561181     0.384637     0.213583    Uiso  ? Ni
   Ni11       1.0     0.674939     0.499798     0.214078    Uiso  ? Ni
   Ni12       1.0     0.217055     0.729258     0.214137    Uiso  ? Ni
   Ni13       1.0     0.331369     0.615293     0.211679    Uiso  ? Ni
   Ni14       1.0     0.446378     0.614573     0.100934    Uiso  ? Ni
   Ni15       1.0     0.446381     0.729720     0.213679    Uiso  ? Ni
   Ni16       1.0     0.561427     0.614949     0.213433    Uiso  ? Ni
   Ni17       1.0     0.674046     0.728291     0.214987    Uiso  ? Ni
   Ni18       1.0     0.331642     0.269202     0.327314    Uiso  ? Ni
   Ni19       1.0     0.216352     0.267851     0.442893    Uiso  ? Ni
   Ni20       1.0     0.331694     0.156844     0.442863    Uiso  ? Ni
   Ni21       1.0     0.446164     0.157372     0.328381    Uiso  ? Ni
   Ni22       1.0     0.561180     0.269899     0.327958    Uiso  ? Ni
   Ni23       1.0     0.446774     0.267366     0.442631    Uiso  ? Ni
   Ni24       1.0     0.560669     0.157370     0.443050    Uiso  ? Ni
   Ni25       1.0     0.787333     0.271667     0.329147    Uiso  ? Ni
   Ni26       1.0     0.675021     0.270361     0.443004    Uiso  ? Ni
   Ni27       1.0     0.100326     0.499954     0.327956    Uiso  ? Ni
   Ni28       1.0     0.100386     0.384582     0.442989    Uiso  ? Ni
   Ni29       1.0     0.215893     0.382428     0.325770    Uiso  ? Ni
   Ni30       1.0     0.330974     0.498220     0.325451    Uiso  ? Ni
   Ni31       1.0     0.214433     0.501460     0.442870    Uiso  ? Ni
   Ni32       1.0     0.331033     0.381908     0.441190    Uiso  ? Ni
   Ni33       1.0     0.447206     0.381678     0.325061    Uiso  ? Ni
   Ni34       1.0     0.563662     0.499535     0.325638    Uiso  ? Ni
   Ni35       1.0     0.446101     0.499608     0.442086    Uiso  ? Ni
   Ni36       1.0     0.563665     0.382017     0.442302    Uiso  ? Ni
   Ni37       1.0     0.675312     0.384656     0.328043    Uiso  ? Ni
   Ni38       1.0     0.787628     0.499841     0.328505    Uiso  ? Ni
   Ni39       1.0     0.677806     0.499749     0.442514    Uiso  ? Ni
   Ni40       1.0     0.787626     0.385104     0.443054    Uiso  ? Ni
   Ni41       1.0     0.899692     0.499869     0.443139    Uiso  ? Ni
   Ni42       1.0     0.101496     0.615711     0.443154    Uiso  ? Ni
   Ni43       1.0     0.214165     0.617345     0.327261    Uiso  ? Ni
   Ni44       1.0     0.331220     0.732023     0.327739    Uiso  ? Ni
   Ni45       1.0     0.215656     0.730669     0.443095    Uiso  ? Ni
   Ni46       1.0     0.329004     0.617816     0.442514    Uiso  ? Ni
   Ni47       1.0     0.448376     0.617574     0.325386    Uiso  ? Ni
   Ni48       1.0     0.561507     0.730137     0.327945    Uiso  ? Ni
   Ni49       1.0     0.446716     0.732701     0.442556    Uiso  ? Ni
   Ni50       1.0     0.564283     0.617682     0.442211    Uiso  ? Ni
   Ni51       1.0     0.675315     0.614959     0.327936    Uiso  ? Ni
   Ni52       1.0     0.787353     0.728113     0.329071    Uiso  ? Ni
   Ni53       1.0     0.675264     0.729551     0.442901    Uiso  ? Ni
   Ni54       1.0     0.787664     0.614587     0.442934    Uiso  ? Ni
   Ni55       1.0     0.331152     0.843156     0.443083    Uiso  ? Ni
   Ni56       1.0     0.446347     0.842888     0.328378    Uiso  ? Ni
   Ni57       1.0     0.560798     0.842657     0.442954    Uiso  ? Ni
   Ni58       1.0     0.331461     0.267641     0.558556    Uiso  ? Ni
   Ni59       1.0     0.216797     0.270005     0.672969    Uiso  ? Ni
   Ni60       1.0     0.446405     0.157161     0.557936    Uiso  ? Ni
   Ni61       1.0     0.561581     0.269261     0.557878    Uiso  ? Ni
   Ni62       1.0     0.446133     0.269588     0.673229    Uiso  ? Ni
   Ni63       1.0     0.560114     0.157900     0.671703    Uiso  ? Ni
   Ni64       1.0     0.674080     0.157755     0.557355    Uiso  ? Ni
   Ni65       1.0     0.787473     0.271465     0.557264    Uiso  ? Ni
   Ni66       1.0     0.674543     0.270861     0.671692    Uiso  ? Ni
   Ni67       1.0     0.100000     0.500200     0.558576    Uiso  ? Ni
   Ni68       1.0     0.214236     0.382395     0.560255    Uiso  ? Ni
   Ni69       1.0     0.330326     0.499598     0.559876    Uiso  ? Ni
   Ni70       1.0     0.215549     0.499790     0.675381    Uiso  ? Ni
   Ni71       1.0     0.330753     0.383219     0.675662    Uiso  ? Ni
   Ni72       1.0     0.448370     0.381081     0.560152    Uiso  ? Ni
   Ni73       1.0     0.564331     0.499402     0.558132    Uiso  ? Ni
   Ni74       1.0     0.444995     0.497902     0.675951    Uiso  ? Ni
   Ni75       1.0     0.561766     0.382365     0.673370    Uiso  ? Ni
   Ni76       1.0     0.675644     0.384125     0.557759    Uiso  ? Ni
   Ni77       1.0     0.787902     0.499783     0.557347    Uiso  ? Ni
   Ni78       1.0     0.677245     0.499516     0.672492    Uiso  ? Ni
   Ni79       1.0     0.787793     0.385193     0.671435    Uiso  ? Ni
   Ni80       1.0     0.900000     0.385904     0.557086    Uiso  ? Ni
   Ni81       1.0     0.899915     0.499874     0.671009    Uiso  ? Ni
   Ni82       1.0     0.213532     0.617754     0.558823    Uiso  ? Ni
   Ni83       1.0     0.330675     0.732433     0.558188    Uiso  ? Ni
   Ni84       1.0     0.216339     0.729847     0.672671    Uiso  ? Ni
   Ni85       1.0     0.328945     0.616042     0.675258    Uiso  ? Ni
   Ni86       1.0     0.448283     0.618374     0.558477    Uiso  ? Ni
   Ni87       1.0     0.561989     0.730890     0.557568    Uiso  ? Ni
   Ni88       1.0     0.446032     0.731909     0.672976    Uiso  ? Ni
   Ni89       1.0     0.563225     0.616826     0.673206    Uiso  ? Ni
   Ni90       1.0     0.676025     0.615436     0.557524    Uiso  ? Ni
   Ni91       1.0     0.787548     0.728351     0.557223    Uiso  ? Ni
   Ni92       1.0     0.674891     0.729161     0.671668    Uiso  ? Ni
   Ni93       1.0     0.787662     0.614416     0.671456    Uiso  ? Ni
   Ni94       1.0     0.899921     0.613833     0.557087    Uiso  ? Ni
   Ni95       1.0     0.446290     0.843139     0.557559    Uiso  ? Ni
   Ni96       1.0     0.560460     0.842408     0.671657    Uiso  ? Ni
   Ni97       1.0     0.674302     0.842276     0.557273    Uiso  ? Ni
   Ni98       1.0     0.331506     0.270633     0.786340    Uiso  ? Ni
   Ni99       1.0     0.560173     0.270888     0.786025    Uiso  ? Ni
   Ni100      1.0     0.787150     0.271943     0.784938    Uiso  ? Ni
   Ni101      1.0     0.330628     0.499492     0.787690    Uiso  ? Ni
   Ni102      1.0     0.446019     0.384074     0.787180    Uiso  ? Ni
   Ni103      1.0     0.560957     0.499465     0.788405    Uiso  ? Ni
   Ni104      1.0     0.445491     0.499416     0.899246    Uiso  ? Ni
   Ni105      1.0     0.559936     0.385233     0.899151    Uiso  ? Ni
   Ni106      1.0     0.674481     0.385171     0.785904    Uiso  ? Ni
   Ni107      1.0     0.787765     0.499792     0.785576    Uiso  ? Ni
   Ni108      1.0     0.674108     0.499763     0.899133    Uiso  ? Ni
   Ni109      1.0     0.331145     0.729310     0.786481    Uiso  ? Ni
   Ni110      1.0     0.445836     0.615000     0.788697    Uiso  ? Ni
   Ni111      1.0     0.560375     0.729059     0.786197    Uiso  ? Ni
   Ni112      1.0     0.560198     0.614298     0.899410    Uiso  ? Ni
   Ni113      1.0     0.674781     0.614392     0.786161    Uiso  ? Ni
   Ni114      1.0     0.787195     0.727853     0.784987    Uiso  ? Ni
   H1         1.0     0.446793     0.499324     0.558746    Uiso  ? H
   H2         1.0     0.215556     0.499883     0.327230    Uiso  ? H
   H3         1.0     0.215702     0.383988     0.442609    Uiso  ? H
   H4         1.0     0.446940     0.499142     0.325612    Uiso  ? H
   H5         1.0     0.447033     0.382592     0.442175    Uiso  ? H
   H6         1.0     0.563556     0.499942     0.442170    Uiso  ? H
   H7         1.0     0.330860     0.615813     0.327057    Uiso  ? H
   H8         1.0     0.447140     0.617036     0.442294    Uiso  ? H
   H9         1.0     0.331409     0.383176     0.559332    Uiso  ? H
   H10        1.0     0.214645     0.500479     0.559255    Uiso  ? H
   H11        1.0     0.562029     0.499058     0.673534    Uiso  ? H
   H12        1.0     0.330122     0.616510     0.558287    Uiso  ? H
   H13        1.0     0.446014     0.615731     0.674386    Uiso  ? H
