
#======================================================================
# CRYSTAL DATA
#----------------------------------------------------------------------
data_VESTA_phase_1

_chemical_name_common                  ' Ni H'
_cell_length_a                         15.524790
_cell_length_b                         15.524790
_cell_length_c                         15.524790
_cell_angle_alpha                      90.000000
_cell_angle_beta                       90.000000
_cell_angle_gamma                      90.000000
_cell_volume                           1.000000
_space_group_name_H-M_alt              'P 1'
_space_group_IT_number                 1

loop_
_space_group_symop_operation_xyz
   'x, y, z'

loop_
   _atom_site_label
   _atom_site_occupancy
   _atom_site_fract_x
   _atom_site_fract_y
   _atom_site_fract_z
   _atom_site_adp_type
   _atom_site_U_iso_or_equiv
   _atom_site_type_symbol
   Ni1        1.0     0.217271     0.270631     0.214196    Uiso  ? Ni
   Ni2        1.0     0.446021     0.270255     0.213820    Uiso  ? Ni
   Ni3        1.0     0.673961     0.271510     0.215048    Uiso  ? Ni
   Ni4        1.0     0.331585     0.499626     0.100814    Uiso  ? Ni
   Ni5        1.0     0.216260     0.499922     0.211848    Uiso  ? Ni
   Ni6        1.0     0.331421     0.384071     0.212917    Uiso  ? Ni
   Ni7        1.0     0.446059     0.385113     0.101359    Uiso  ? Ni
   Ni8        1.0     0.560525     0.499896     0.101478    Uiso  ? Ni
   Ni9        1.0     0.446594     0.499617     0.211196    Uiso  ? Ni
   Ni10       1.0     0.561045     0.384651     0.213715    Uiso  ? Ni
   Ni11       1.0     0.674953     0.499924     0.214087    Uiso  ? Ni
   Ni12       1.0     0.216983     0.729300     0.214350    Uiso  ? Ni
   Ni13       1.0     0.331168     0.615393     0.211800    Uiso  ? Ni
   Ni14       1.0     0.446253     0.614665     0.101184    Uiso  ? Ni
   Ni15       1.0     0.446162     0.729866     0.213759    Uiso  ? Ni
   Ni16       1.0     0.561278     0.615158     0.213556    Uiso  ? Ni
   Ni17       1.0     0.673977     0.728483     0.215042    Uiso  ? Ni
   Ni18       1.0     0.331374     0.269249     0.327336    Uiso  ? Ni
   Ni19       1.0     0.216171     0.267926     0.442999    Uiso  ? Ni
   Ni20       1.0     0.331389     0.156831     0.442913    Uiso  ? Ni
   Ni21       1.0     0.445908     0.157352     0.328364    Uiso  ? Ni
   Ni22       1.0     0.560994     0.269596     0.327529    Uiso  ? Ni
   Ni23       1.0     0.446169     0.267237     0.442398    Uiso  ? Ni
   Ni24       1.0     0.560472     0.157139     0.442794    Uiso  ? Ni
   Ni25       1.0     0.787414     0.271637     0.329067    Uiso  ? Ni
   Ni26       1.0     0.675262     0.270103     0.442721    Uiso  ? Ni
   Ni27       1.0     0.100339     0.500071     0.328182    Uiso  ? Ni
   Ni28       1.0     0.100357     0.384725     0.443165    Uiso  ? Ni
   Ni29       1.0     0.215733     0.382551     0.325856    Uiso  ? Ni
   Ni30       1.0     0.330761     0.498373     0.325477    Uiso  ? Ni
   Ni31       1.0     0.214414     0.501603     0.443094    Uiso  ? Ni
   Ni32       1.0     0.330503     0.382018     0.441108    Uiso  ? Ni
   Ni33       1.0     0.446702     0.381799     0.324860    Uiso  ? Ni
   Ni34       1.0     0.563500     0.499704     0.325129    Uiso  ? Ni
   Ni35       1.0     0.445272     0.500058     0.442136    Uiso  ? Ni
   Ni36       1.0     0.563422     0.381900     0.440399    Uiso  ? Ni
   Ni37       1.0     0.675619     0.384679     0.327581    Uiso  ? Ni
   Ni38       1.0     0.787821     0.499987     0.328321    Uiso  ? Ni
   Ni39       1.0     0.678188     0.499953     0.441933    Uiso  ? Ni
   Ni40       1.0     0.788092     0.385135     0.442684    Uiso  ? Ni
   Ni41       1.0     0.899738     0.500002     0.443128    Uiso  ? Ni
   Ni42       1.0     0.101612     0.615799     0.443459    Uiso  ? Ni
   Ni43       1.0     0.214099     0.617424     0.327479    Uiso  ? Ni
   Ni44       1.0     0.331018     0.732087     0.327906    Uiso  ? Ni
   Ni45       1.0     0.215617     0.730732     0.443393    Uiso  ? Ni
   Ni46       1.0     0.328705     0.618000     0.442898    Uiso  ? Ni
   Ni47       1.0     0.447876     0.617760     0.325214    Uiso  ? Ni
   Ni48       1.0     0.561262     0.730580     0.327642    Uiso  ? Ni
   Ni49       1.0     0.446109     0.732764     0.442824    Uiso  ? Ni
   Ni50       1.0     0.563786     0.618136     0.440731    Uiso  ? Ni
   Ni51       1.0     0.675514     0.615198     0.327590    Uiso  ? Ni
   Ni52       1.0     0.787367     0.728332     0.329071    Uiso  ? Ni
   Ni53       1.0     0.675368     0.729966     0.442797    Uiso  ? Ni
   Ni54       1.0     0.788055     0.614842     0.442684    Uiso  ? Ni
   Ni55       1.0     0.330956     0.843169     0.443357    Uiso  ? Ni
   Ni56       1.0     0.446095     0.842916     0.328546    Uiso  ? Ni
   Ni57       1.0     0.560497     0.842888     0.442922    Uiso  ? Ni
   Ni58       1.0     0.330777     0.267388     0.558757    Uiso  ? Ni
   Ni59       1.0     0.216702     0.270173     0.673194    Uiso  ? Ni
   Ni60       1.0     0.445819     0.156871     0.558049    Uiso  ? Ni
   Ni61       1.0     0.561212     0.267683     0.558026    Uiso  ? Ni
   Ni62       1.0     0.445493     0.269225     0.673844    Uiso  ? Ni
   Ni63       1.0     0.559914     0.157593     0.672215    Uiso  ? Ni
   Ni64       1.0     0.674285     0.157513     0.557481    Uiso  ? Ni
   Ni65       1.0     0.787905     0.271129     0.557406    Uiso  ? Ni
   Ni66       1.0     0.674610     0.270754     0.672196    Uiso  ? Ni
   Ni67       1.0     0.100000     0.500374     0.558801    Uiso  ? Ni
   Ni68       1.0     0.214057     0.382558     0.560472    Uiso  ? Ni
   Ni69       1.0     0.329779     0.500038     0.560612    Uiso  ? Ni
   Ni70       1.0     0.215737     0.500300     0.675653    Uiso  ? Ni
   Ni71       1.0     0.330390     0.383740     0.676202    Uiso  ? Ni
   Ni72       1.0     0.445992     0.381162     0.560724    Uiso  ? Ni
   Ni73       1.0     0.563896     0.500012     0.558639    Uiso  ? Ni
   Ni74       1.0     0.444105     0.500040     0.676788    Uiso  ? Ni
   Ni75       1.0     0.561122     0.382664     0.675506    Uiso  ? Ni
   Ni76       1.0     0.677637     0.384055     0.557837    Uiso  ? Ni
   Ni77       1.0     0.788553     0.499989     0.557531    Uiso  ? Ni
   Ni78       1.0     0.677284     0.500001     0.673409    Uiso  ? Ni
   Ni79       1.0     0.788131     0.385345     0.672057    Uiso  ? Ni
   Ni80       1.0     0.899898     0.385910     0.557231    Uiso  ? Ni
   Ni81       1.0     0.900000     0.499999     0.671307    Uiso  ? Ni
   Ni82       1.0     0.213664     0.617911     0.559389    Uiso  ? Ni
   Ni83       1.0     0.330375     0.732637     0.558837    Uiso  ? Ni
   Ni84       1.0     0.216585     0.729692     0.672961    Uiso  ? Ni
   Ni85       1.0     0.330085     0.616333     0.675924    Uiso  ? Ni
   Ni86       1.0     0.445889     0.618899     0.560878    Uiso  ? Ni
   Ni87       1.0     0.561263     0.732361     0.558148    Uiso  ? Ni
   Ni88       1.0     0.445397     0.730812     0.673828    Uiso  ? Ni
   Ni89       1.0     0.561131     0.617368     0.675549    Uiso  ? Ni
   Ni90       1.0     0.677734     0.615951     0.557947    Uiso  ? Ni
   Ni91       1.0     0.787946     0.728894     0.557446    Uiso  ? Ni
   Ni92       1.0     0.674646     0.729278     0.672245    Uiso  ? Ni
   Ni93       1.0     0.788170     0.614659     0.672098    Uiso  ? Ni
   Ni94       1.0     0.899888     0.614090     0.557231    Uiso  ? Ni
   Ni95       1.0     0.445725     0.843145     0.558155    Uiso  ? Ni
   Ni96       1.0     0.559897     0.842438     0.672253    Uiso  ? Ni
   Ni97       1.0     0.674323     0.842528     0.557540    Uiso  ? Ni
   Ni98       1.0     0.331237     0.270767     0.786562    Uiso  ? Ni
   Ni99       1.0     0.559889     0.270670     0.786624    Uiso  ? Ni
   Ni100      1.0     0.787117     0.272007     0.785220    Uiso  ? Ni
   Ni101      1.0     0.330577     0.500073     0.787720    Uiso  ? Ni
   Ni102      1.0     0.445401     0.384627     0.787450    Uiso  ? Ni
   Ni103      1.0     0.560355     0.500023     0.788955    Uiso  ? Ni
   Ni104      1.0     0.445183     0.500035     0.898973    Uiso  ? Ni
   Ni105      1.0     0.559645     0.385442     0.899096    Uiso  ? Ni
   Ni106      1.0     0.674578     0.385349     0.786512    Uiso  ? Ni
   Ni107      1.0     0.787851     0.500002     0.785961    Uiso  ? Ni
   Ni108      1.0     0.673900     0.500016     0.899186    Uiso  ? Ni
   Ni109      1.0     0.331160     0.729237     0.786498    Uiso  ? Ni
   Ni110      1.0     0.445294     0.615434     0.787363    Uiso  ? Ni
   Ni111      1.0     0.559858     0.729359     0.786613    Uiso  ? Ni
   Ni112      1.0     0.559611     0.614598     0.899063    Uiso  ? Ni
   Ni113      1.0     0.674592     0.614674     0.786520    Uiso  ? Ni
   Ni114      1.0     0.787138     0.728016     0.785240    Uiso  ? Ni
   H1         1.0     0.445624     0.500027     0.559587    Uiso  ? H
   H2         1.0     0.215443     0.499976     0.327457    Uiso  ? H
   H3         1.0     0.215349     0.384104     0.442732    Uiso  ? H
   H4         1.0     0.446781     0.499349     0.325804    Uiso  ? H
   H5         1.0     0.446102     0.382905     0.441995    Uiso  ? H
   H6         1.0     0.563290     0.500062     0.441469    Uiso  ? H
   H7         1.0     0.330574     0.615909     0.327335    Uiso  ? H
   H8         1.0     0.446223     0.617182     0.442704    Uiso  ? H
   H9         1.0     0.330387     0.383208     0.559481    Uiso  ? H
   H10        1.0     0.214235     0.500619     0.559398    Uiso  ? H
   H11        1.0     0.562535     0.382872     0.558308    Uiso  ? H
   H12        1.0     0.561063     0.499995     0.674889    Uiso  ? H
   H13        1.0     0.329705     0.616828     0.559388    Uiso  ? H
   H14        1.0     0.562557     0.617166     0.558528    Uiso  ? H
