
#======================================================================
# CRYSTAL DATA
#----------------------------------------------------------------------
data_VESTA_phase_1

_chemical_name_common                  ' Ni H'
_cell_length_a                         15.480411
_cell_length_b                         15.480411
_cell_length_c                         15.480411
_cell_angle_alpha                      90.000000
_cell_angle_beta                       90.000000
_cell_angle_gamma                      90.000000
_cell_volume                           1.000000
_space_group_name_H-M_alt              'P 1'
_space_group_IT_number                 1

loop_
_space_group_symop_operation_xyz
   'x, y, z'

loop_
   _atom_site_label
   _atom_site_occupancy
   _atom_site_fract_x
   _atom_site_fract_y
   _atom_site_fract_z
   _atom_site_adp_type
   _atom_site_U_iso_or_equiv
   _atom_site_type_symbol
   Ni1        1.0     0.216726     0.271785     0.214438    Uiso  ? Ni
   Ni2        1.0     0.444647     0.271602     0.214271    Uiso  ? Ni
   Ni3        1.0     0.672771     0.271872     0.214502    Uiso  ? Ni
   Ni4        1.0     0.330669     0.499996     0.101252    Uiso  ? Ni
   Ni5        1.0     0.216509     0.499927     0.214474    Uiso  ? Ni
   Ni6        1.0     0.330491     0.385608     0.214232    Uiso  ? Ni
   Ni7        1.0     0.444676     0.385971     0.101198    Uiso  ? Ni
   Ni8        1.0     0.558665     0.499978     0.101333    Uiso  ? Ni
   Ni9        1.0     0.444467     0.499982     0.214104    Uiso  ? Ni
   Ni10       1.0     0.558859     0.385464     0.214150    Uiso  ? Ni
   Ni11       1.0     0.673270     0.500045     0.214013    Uiso  ? Ni
   Ni12       1.0     0.216745     0.728170     0.214471    Uiso  ? Ni
   Ni13       1.0     0.330602     0.614257     0.214483    Uiso  ? Ni
   Ni14       1.0     0.444660     0.614001     0.101203    Uiso  ? Ni
   Ni15       1.0     0.444772     0.728362     0.214286    Uiso  ? Ni
   Ni16       1.0     0.558964     0.614603     0.213925    Uiso  ? Ni
   Ni17       1.0     0.672780     0.728115     0.214488    Uiso  ? Ni
   Ni18       1.0     0.330461     0.271179     0.327654    Uiso  ? Ni
   Ni19       1.0     0.216323     0.270943     0.441645    Uiso  ? Ni
   Ni20       1.0     0.330491     0.157757     0.442084    Uiso  ? Ni
   Ni21       1.0     0.444647     0.157796     0.328077    Uiso  ? Ni
   Ni22       1.0     0.558914     0.270929     0.327404    Uiso  ? Ni
   Ni23       1.0     0.444289     0.270311     0.441328    Uiso  ? Ni
   Ni24       1.0     0.558859     0.157674     0.441940    Uiso  ? Ni
   Ni25       1.0     0.786696     0.271879     0.328354    Uiso  ? Ni
   Ni26       1.0     0.673602     0.271008     0.441974    Uiso  ? Ni
   Ni27       1.0     0.102277     0.499871     0.327631    Uiso  ? Ni
   Ni28       1.0     0.102349     0.385270     0.441745    Uiso  ? Ni
   Ni29       1.0     0.216323     0.385170     0.327418    Uiso  ? Ni
   Ni30       1.0     0.330125     0.499687     0.326585    Uiso  ? Ni
   Ni31       1.0     0.215611     0.499615     0.439166    Uiso  ? Ni
   Ni32       1.0     0.329838     0.383892     0.440368    Uiso  ? Ni
   Ni33       1.0     0.444289     0.384853     0.326786    Uiso  ? Ni
   Ni34       1.0     0.559432     0.500251     0.325243    Uiso  ? Ni
   Ni35       1.0     0.443564     0.499965     0.438898    Uiso  ? Ni
   Ni36       1.0     0.559438     0.383411     0.439887    Uiso  ? Ni
   Ni37       1.0     0.673602     0.385498     0.327484    Uiso  ? Ni
   Ni38       1.0     0.787133     0.500108     0.327884    Uiso  ? Ni
   Ni39       1.0     0.675705     0.500368     0.441571    Uiso  ? Ni
   Ni40       1.0     0.787384     0.385573     0.442049    Uiso  ? Ni
   Ni41       1.0     0.899826     0.500115     0.442555    Uiso  ? Ni
   Ni42       1.0     0.101984     0.614500     0.441439    Uiso  ? Ni
   Ni43       1.0     0.216126     0.614627     0.327239    Uiso  ? Ni
   Ni44       1.0     0.330630     0.728968     0.327474    Uiso  ? Ni
   Ni45       1.0     0.216113     0.729229     0.441441    Uiso  ? Ni
   Ni46       1.0     0.330192     0.615672     0.439189    Uiso  ? Ni
   Ni47       1.0     0.444908     0.615100     0.326811    Uiso  ? Ni
   Ni48       1.0     0.559078     0.728849     0.327626    Uiso  ? Ni
   Ni49       1.0     0.444993     0.729630     0.441383    Uiso  ? Ni
   Ni50       1.0     0.559876     0.616990     0.441148    Uiso  ? Ni
   Ni51       1.0     0.673408     0.614640     0.327686    Uiso  ? Ni
   Ni52       1.0     0.786605     0.728091     0.328436    Uiso  ? Ni
   Ni53       1.0     0.673420     0.728783     0.442208    Uiso  ? Ni
   Ni54       1.0     0.787035     0.614640     0.442358    Uiso  ? Ni
   Ni55       1.0     0.330708     0.842551     0.441808    Uiso  ? Ni
   Ni56       1.0     0.444885     0.842159     0.328103    Uiso  ? Ni
   Ni57       1.0     0.559077     0.841922     0.442262    Uiso  ? Ni
   Ni58       1.0     0.330125     0.270110     0.556162    Uiso  ? Ni
   Ni59       1.0     0.216126     0.270763     0.671102    Uiso  ? Ni
   Ni60       1.0     0.444467     0.157629     0.556457    Uiso  ? Ni
   Ni61       1.0     0.559432     0.268767     0.556726    Uiso  ? Ni
   Ni62       1.0     0.444908     0.270335     0.671575    Uiso  ? Ni
   Ni63       1.0     0.558964     0.157449     0.671078    Uiso  ? Ni
   Ni64       1.0     0.673270     0.157538     0.556521    Uiso  ? Ni
   Ni65       1.0     0.787133     0.271409     0.556583    Uiso  ? Ni
   Ni66       1.0     0.673408     0.271211     0.671116    Uiso  ? Ni
   Ni67       1.0     0.100000     0.499594     0.556069    Uiso  ? Ni
   Ni68       1.0     0.215611     0.382691     0.556090    Uiso  ? Ni
   Ni69       1.0     0.329953     0.498314     0.554789    Uiso  ? Ni
   Ni70       1.0     0.213902     0.499617     0.673246    Uiso  ? Ni
   Ni71       1.0     0.330192     0.382714     0.672147    Uiso  ? Ni
   Ni72       1.0     0.443564     0.382423     0.556441    Uiso  ? Ni
   Ni73       1.0     0.561847     0.501695     0.558171    Uiso  ? Ni
   Ni74       1.0     0.446943     0.500014     0.673947    Uiso  ? Ni
   Ni75       1.0     0.559876     0.384673     0.673465    Uiso  ? Ni
   Ni76       1.0     0.675705     0.385096     0.556843    Uiso  ? Ni
   Ni77       1.0     0.787126     0.500459     0.556934    Uiso  ? Ni
   Ni78       1.0     0.673971     0.500369     0.671902    Uiso  ? Ni
   Ni79       1.0     0.787035     0.385883     0.671116    Uiso  ? Ni
   Ni80       1.0     0.899826     0.386080     0.556590    Uiso  ? Ni
   Ni81       1.0     0.900000     0.500118     0.670608    Uiso  ? Ni
   Ni82       1.0     0.213902     0.616771     0.556093    Uiso  ? Ni
   Ni83       1.0     0.330599     0.731469     0.556213    Uiso  ? Ni
   Ni84       1.0     0.215929     0.729403     0.671330    Uiso  ? Ni
   Ni85       1.0     0.330621     0.616848     0.673323    Uiso  ? Ni
   Ni86       1.0     0.446943     0.617472     0.556489    Uiso  ? Ni
   Ni87       1.0     0.559969     0.729519     0.556781    Uiso  ? Ni
   Ni88       1.0     0.445612     0.729623     0.671565    Uiso  ? Ni
   Ni89       1.0     0.560234     0.615718     0.672193    Uiso  ? Ni
   Ni90       1.0     0.673971     0.615427     0.556844    Uiso  ? Ni
   Ni91       1.0     0.786741     0.728319     0.556594    Uiso  ? Ni
   Ni92       1.0     0.673212     0.728572     0.670906    Uiso  ? Ni
   Ni93       1.0     0.786666     0.614333     0.670808    Uiso  ? Ni
   Ni94       1.0     0.900000     0.614133     0.556593    Uiso  ? Ni
   Ni95       1.0     0.445376     0.842327     0.556477    Uiso  ? Ni
   Ni96       1.0     0.559185     0.842169     0.670785    Uiso  ? Ni
   Ni97       1.0     0.673018     0.842053     0.556533    Uiso  ? Ni
   Ni98       1.0     0.330630     0.270999     0.785443    Uiso  ? Ni
   Ni99       1.0     0.559078     0.271151     0.785324    Uiso  ? Ni
   Ni100      1.0     0.786605     0.271961     0.784566    Uiso  ? Ni
   Ni101      1.0     0.330599     0.499738     0.787944    Uiso  ? Ni
   Ni102      1.0     0.444993     0.384908     0.786105    Uiso  ? Ni
   Ni103      1.0     0.559969     0.500306     0.785994    Uiso  ? Ni
   Ni104      1.0     0.445376     0.500001     0.898802    Uiso  ? Ni
   Ni105      1.0     0.559077     0.385787     0.898397    Uiso  ? Ni
   Ni106      1.0     0.673420     0.385733     0.785258    Uiso  ? Ni
   Ni107      1.0     0.786741     0.500119     0.784794    Uiso  ? Ni
   Ni108      1.0     0.673018     0.500057     0.898528    Uiso  ? Ni
   Ni109      1.0     0.330792     0.729161     0.785636    Uiso  ? Ni
   Ni110      1.0     0.445612     0.615089     0.786098    Uiso  ? Ni
   Ni111      1.0     0.559247     0.728637     0.785112    Uiso  ? Ni
   Ni112      1.0     0.559185     0.614310     0.898644    Uiso  ? Ni
   Ni113      1.0     0.673212     0.614431     0.785047    Uiso  ? Ni
   Ni114      1.0     0.786516     0.728014     0.784489    Uiso  ? Ni
   H1         1.0     0.445612     0.500027     0.556503    Uiso  ? H
   H2         1.0     0.560234     0.500787     0.440587    Uiso  ? H
   H3         1.0     0.214115     0.499202     0.555677    Uiso  ? H
   H4         1.0     0.330395     0.499252     0.672880    Uiso  ? H
   H5         1.0     0.560234     0.384112     0.557263    Uiso  ? H
   H6         1.0     0.330395     0.616405     0.555727    Uiso  ? H
