
#======================================================================
# CRYSTAL DATA
#----------------------------------------------------------------------
data_VESTA_phase_1

_chemical_name_common                  ' Ni H'
_cell_length_a                         15.482680
_cell_length_b                         15.482680
_cell_length_c                         15.482680
_cell_angle_alpha                      90.000000
_cell_angle_beta                       90.000000
_cell_angle_gamma                      90.000000
_cell_volume                           1.000000
_space_group_name_H-M_alt              'P 1'
_space_group_IT_number                 1

loop_
_space_group_symop_operation_xyz
   'x, y, z'

loop_
   _atom_site_label
   _atom_site_occupancy
   _atom_site_fract_x
   _atom_site_fract_y
   _atom_site_fract_z
   _atom_site_adp_type
   _atom_site_U_iso_or_equiv
   _atom_site_type_symbol
   Ni1        1.0     0.216346     0.271976     0.213848    Uiso  ? Ni
   Ni2        1.0     0.444244     0.271712     0.213678    Uiso  ? Ni
   Ni3        1.0     0.672616     0.271907     0.213781    Uiso  ? Ni
   Ni4        1.0     0.330318     0.500201     0.100682    Uiso  ? Ni
   Ni5        1.0     0.216105     0.500232     0.213849    Uiso  ? Ni
   Ni6        1.0     0.330053     0.385874     0.213708    Uiso  ? Ni
   Ni7        1.0     0.444338     0.386164     0.100720    Uiso  ? Ni
   Ni8        1.0     0.558350     0.500198     0.100934    Uiso  ? Ni
   Ni9        1.0     0.443957     0.500214     0.213553    Uiso  ? Ni
   Ni10       1.0     0.558531     0.385519     0.213531    Uiso  ? Ni
   Ni11       1.0     0.673109     0.500224     0.213370    Uiso  ? Ni
   Ni12       1.0     0.216381     0.728426     0.213871    Uiso  ? Ni
   Ni13       1.0     0.330051     0.614574     0.213655    Uiso  ? Ni
   Ni14       1.0     0.444340     0.614237     0.100699    Uiso  ? Ni
   Ni15       1.0     0.444248     0.728719     0.213624    Uiso  ? Ni
   Ni16       1.0     0.558536     0.614914     0.213482    Uiso  ? Ni
   Ni17       1.0     0.672578     0.728483     0.213813    Uiso  ? Ni
   Ni18       1.0     0.329920     0.271275     0.326955    Uiso  ? Ni
   Ni19       1.0     0.215770     0.271009     0.440859    Uiso  ? Ni
   Ni20       1.0     0.329950     0.157568     0.441212    Uiso  ? Ni
   Ni21       1.0     0.444268     0.157675     0.327224    Uiso  ? Ni
   Ni22       1.0     0.558674     0.270741     0.326423    Uiso  ? Ni
   Ni23       1.0     0.443742     0.269896     0.440022    Uiso  ? Ni
   Ni24       1.0     0.558685     0.157523     0.440988    Uiso  ? Ni
   Ni25       1.0     0.786702     0.271850     0.327527    Uiso  ? Ni
   Ni26       1.0     0.673684     0.270804     0.440953    Uiso  ? Ni
   Ni27       1.0     0.102027     0.500251     0.327090    Uiso  ? Ni
   Ni28       1.0     0.102038     0.385633     0.441060    Uiso  ? Ni
   Ni29       1.0     0.215804     0.385478     0.326728    Uiso  ? Ni
   Ni30       1.0     0.329392     0.500292     0.325993    Uiso  ? Ni
   Ni31       1.0     0.215332     0.500312     0.438556    Uiso  ? Ni
   Ni32       1.0     0.328839     0.384377     0.439386    Uiso  ? Ni
   Ni33       1.0     0.443710     0.384966     0.326094    Uiso  ? Ni
   Ni34       1.0     0.559042     0.500268     0.324165    Uiso  ? Ni
   Ni35       1.0     0.442247     0.500546     0.437409    Uiso  ? Ni
   Ni36       1.0     0.559379     0.382931     0.438141    Uiso  ? Ni
   Ni37       1.0     0.673643     0.385452     0.326485    Uiso  ? Ni
   Ni38       1.0     0.787335     0.500241     0.326895    Uiso  ? Ni
   Ni39       1.0     0.676172     0.500274     0.439969    Uiso  ? Ni
   Ni40       1.0     0.787662     0.385463     0.441014    Uiso  ? Ni
   Ni41       1.0     0.900000     0.500228     0.441651    Uiso  ? Ni
   Ni42       1.0     0.102126     0.614845     0.441181    Uiso  ? Ni
   Ni43       1.0     0.215916     0.615004     0.326819    Uiso  ? Ni
   Ni44       1.0     0.329986     0.729101     0.327034    Uiso  ? Ni
   Ni45       1.0     0.215906     0.729340     0.441023    Uiso  ? Ni
   Ni46       1.0     0.329136     0.616225     0.439735    Uiso  ? Ni
   Ni47       1.0     0.443716     0.615579     0.325969    Uiso  ? Ni
   Ni48       1.0     0.558610     0.729609     0.326513    Uiso  ? Ni
   Ni49       1.0     0.443740     0.730232     0.440435    Uiso  ? Ni
   Ni50       1.0     0.559075     0.617573     0.438499    Uiso  ? Ni
   Ni51       1.0     0.673523     0.614998     0.326589    Uiso  ? Ni
   Ni52       1.0     0.786629     0.728530     0.327601    Uiso  ? Ni
   Ni53       1.0     0.673530     0.729538     0.441106    Uiso  ? Ni
   Ni54       1.0     0.787574     0.614998     0.441126    Uiso  ? Ni
   Ni55       1.0     0.330055     0.842645     0.441405    Uiso  ? Ni
   Ni56       1.0     0.444268     0.842565     0.327370    Uiso  ? Ni
   Ni57       1.0     0.558572     0.842699     0.441173    Uiso  ? Ni
   Ni58       1.0     0.329099     0.269606     0.555067    Uiso  ? Ni
   Ni59       1.0     0.215195     0.270477     0.670464    Uiso  ? Ni
   Ni60       1.0     0.444070     0.157196     0.555376    Uiso  ? Ni
   Ni61       1.0     0.559438     0.268243     0.555386    Uiso  ? Ni
   Ni62       1.0     0.444053     0.268291     0.670904    Uiso  ? Ni
   Ni63       1.0     0.559070     0.157208     0.670522    Uiso  ? Ni
   Ni64       1.0     0.673314     0.157423     0.555745    Uiso  ? Ni
   Ni65       1.0     0.787402     0.271137     0.555802    Uiso  ? Ni
   Ni66       1.0     0.674135     0.270393     0.670629    Uiso  ? Ni
   Ni67       1.0     0.100000     0.500289     0.555400    Uiso  ? Ni
   Ni68       1.0     0.215004     0.383228     0.555027    Uiso  ? Ni
   Ni69       1.0     0.328675     0.500665     0.553503    Uiso  ? Ni
   Ni70       1.0     0.213283     0.500612     0.672419    Uiso  ? Ni
   Ni71       1.0     0.327421     0.383053     0.671266    Uiso  ? Ni
   Ni72       1.0     0.442290     0.382285     0.553451    Uiso  ? Ni
   Ni73       1.0     0.561418     0.500511     0.555285    Uiso  ? Ni
   Ni74       1.0     0.444055     0.502275     0.673479    Uiso  ? Ni
   Ni75       1.0     0.561363     0.382734     0.673082    Uiso  ? Ni
   Ni76       1.0     0.676454     0.384435     0.555513    Uiso  ? Ni
   Ni77       1.0     0.788013     0.500288     0.555826    Uiso  ? Ni
   Ni78       1.0     0.676503     0.500566     0.671645    Uiso  ? Ni
   Ni79       1.0     0.787502     0.385447     0.670660    Uiso  ? Ni
   Ni80       1.0     0.899935     0.385965     0.555915    Uiso  ? Ni
   Ni81       1.0     0.899919     0.500223     0.670175    Uiso  ? Ni
   Ni82       1.0     0.215323     0.617334     0.555380    Uiso  ? Ni
   Ni83       1.0     0.329406     0.730534     0.555432    Uiso  ? Ni
   Ni84       1.0     0.215515     0.729720     0.670512    Uiso  ? Ni
   Ni85       1.0     0.328924     0.618038     0.671371    Uiso  ? Ni
   Ni86       1.0     0.442265     0.618560     0.555081    Uiso  ? Ni
   Ni87       1.0     0.559085     0.731960     0.555757    Uiso  ? Ni
   Ni88       1.0     0.444060     0.730365     0.671043    Uiso  ? Ni
   Ni89       1.0     0.559810     0.618223     0.673142    Uiso  ? Ni
   Ni90       1.0     0.676135     0.616114     0.555796    Uiso  ? Ni
   Ni91       1.0     0.787334     0.729237     0.555866    Uiso  ? Ni
   Ni92       1.0     0.673768     0.729771     0.670654    Uiso  ? Ni
   Ni93       1.0     0.787645     0.615128     0.670655    Uiso  ? Ni
   Ni94       1.0     0.899995     0.614484     0.555908    Uiso  ? Ni
   Ni95       1.0     0.444047     0.842712     0.555816    Uiso  ? Ni
   Ni96       1.0     0.558674     0.842715     0.670579    Uiso  ? Ni
   Ni97       1.0     0.673141     0.842805     0.555864    Uiso  ? Ni
   Ni98       1.0     0.329689     0.270750     0.785270    Uiso  ? Ni
   Ni99       1.0     0.559127     0.270373     0.785683    Uiso  ? Ni
   Ni100      1.0     0.786798     0.271755     0.784360    Uiso  ? Ni
   Ni101      1.0     0.329193     0.500676     0.787902    Uiso  ? Ni
   Ni102      1.0     0.444151     0.384784     0.787768    Uiso  ? Ni
   Ni103      1.0     0.559865     0.500666     0.788144    Uiso  ? Ni
   Ni104      1.0     0.444447     0.500647     0.899318    Uiso  ? Ni
   Ni105      1.0     0.559135     0.385485     0.899001    Uiso  ? Ni
   Ni106      1.0     0.674127     0.385417     0.785687    Uiso  ? Ni
   Ni107      1.0     0.787389     0.500311     0.785008    Uiso  ? Ni
   Ni108      1.0     0.673448     0.500349     0.898850    Uiso  ? Ni
   Ni109      1.0     0.329955     0.729499     0.785073    Uiso  ? Ni
   Ni110      1.0     0.444114     0.616339     0.786484    Uiso  ? Ni
   Ni111      1.0     0.558837     0.729842     0.785460    Uiso  ? Ni
   Ni112      1.0     0.558860     0.615208     0.898763    Uiso  ? Ni
   Ni113      1.0     0.673800     0.615231     0.785398    Uiso  ? Ni
   Ni114      1.0     0.786746     0.728652     0.784306    Uiso  ? Ni
   H1         1.0     0.443456     0.500818     0.554516    Uiso  ? H
   H2         1.0     0.559775     0.500271     0.438515    Uiso  ? H
   H3         1.0     0.213894     0.500186     0.554899    Uiso  ? H
   H4         1.0     0.328495     0.501165     0.671854    Uiso  ? H
   H5         1.0     0.560343     0.383260     0.555192    Uiso  ? H
   H6         1.0     0.443896     0.383911     0.671471    Uiso  ? H
   H7         1.0     0.560982     0.500820     0.672790    Uiso  ? H
   H8         1.0     0.559621     0.617400     0.555867    Uiso  ? H
