
#======================================================================
# CRYSTAL DATA
#----------------------------------------------------------------------
data_VESTA_phase_1

_chemical_name_common                  ' Ni H'
_cell_length_a                         15.505011
_cell_length_b                         15.505011
_cell_length_c                         15.505011
_cell_angle_alpha                      90.000000
_cell_angle_beta                       90.000000
_cell_angle_gamma                      90.000000
_cell_volume                           1.000000
_space_group_name_H-M_alt              'P 1'
_space_group_IT_number                 1

loop_
_space_group_symop_operation_xyz
   'x, y, z'

loop_
   _atom_site_label
   _atom_site_occupancy
   _atom_site_fract_x
   _atom_site_fract_y
   _atom_site_fract_z
   _atom_site_adp_type
   _atom_site_U_iso_or_equiv
   _atom_site_type_symbol
   Ni1        1.0     0.217137     0.270555     0.213962    Uiso  ? Ni
   Ni2        1.0     0.445437     0.270321     0.213821    Uiso  ? Ni
   Ni3        1.0     0.673312     0.271133     0.214633    Uiso  ? Ni
   Ni4        1.0     0.330981     0.499259     0.100898    Uiso  ? Ni
   Ni5        1.0     0.216417     0.499139     0.213181    Uiso  ? Ni
   Ni6        1.0     0.331153     0.384252     0.213282    Uiso  ? Ni
   Ni7        1.0     0.445481     0.384762     0.100789    Uiso  ? Ni
   Ni8        1.0     0.559802     0.499247     0.100953    Uiso  ? Ni
   Ni9        1.0     0.445675     0.498879     0.211730    Uiso  ? Ni
   Ni10       1.0     0.560007     0.384484     0.214020    Uiso  ? Ni
   Ni11       1.0     0.674047     0.499170     0.214025    Uiso  ? Ni
   Ni12       1.0     0.216939     0.728251     0.213774    Uiso  ? Ni
   Ni13       1.0     0.330864     0.614069     0.213175    Uiso  ? Ni
   Ni14       1.0     0.445480     0.613765     0.101045    Uiso  ? Ni
   Ni15       1.0     0.445506     0.728655     0.213492    Uiso  ? Ni
   Ni16       1.0     0.560436     0.613939     0.213656    Uiso  ? Ni
   Ni17       1.0     0.673536     0.727669     0.214428    Uiso  ? Ni
   Ni18       1.0     0.331075     0.269679     0.327381    Uiso  ? Ni
   Ni19       1.0     0.216711     0.268210     0.442119    Uiso  ? Ni
   Ni20       1.0     0.331428     0.156986     0.442425    Uiso  ? Ni
   Ni21       1.0     0.445354     0.157313     0.328169    Uiso  ? Ni
   Ni22       1.0     0.559982     0.269831     0.327508    Uiso  ? Ni
   Ni23       1.0     0.445608     0.268985     0.441746    Uiso  ? Ni
   Ni24       1.0     0.559515     0.156915     0.442059    Uiso  ? Ni
   Ni25       1.0     0.786993     0.271164     0.328482    Uiso  ? Ni
   Ni26       1.0     0.674064     0.270250     0.441958    Uiso  ? Ni
   Ni27       1.0     0.102030     0.499162     0.326994    Uiso  ? Ni
   Ni28       1.0     0.100459     0.384058     0.442196    Uiso  ? Ni
   Ni29       1.0     0.216351     0.383677     0.325352    Uiso  ? Ni
   Ni30       1.0     0.329321     0.498470     0.325584    Uiso  ? Ni
   Ni31       1.0     0.215131     0.498700     0.440038    Uiso  ? Ni
   Ni32       1.0     0.332203     0.382113     0.441086    Uiso  ? Ni
   Ni33       1.0     0.445660     0.381787     0.326304    Uiso  ? Ni
   Ni34       1.0     0.562433     0.498793     0.326503    Uiso  ? Ni
   Ni35       1.0     0.446011     0.496680     0.440721    Uiso  ? Ni
   Ni36       1.0     0.560823     0.382698     0.439584    Uiso  ? Ni
   Ni37       1.0     0.674415     0.384363     0.327601    Uiso  ? Ni
   Ni38       1.0     0.787238     0.499197     0.327982    Uiso  ? Ni
   Ni39       1.0     0.675774     0.498812     0.441017    Uiso  ? Ni
   Ni40       1.0     0.787646     0.384784     0.441892    Uiso  ? Ni
   Ni41       1.0     0.900000     0.499332     0.442353    Uiso  ? Ni
   Ni42       1.0     0.100000     0.614344     0.441805    Uiso  ? Ni
   Ni43       1.0     0.215719     0.614639     0.324692    Uiso  ? Ni
   Ni44       1.0     0.330771     0.729573     0.326651    Uiso  ? Ni
   Ni45       1.0     0.215933     0.730927     0.441675    Uiso  ? Ni
   Ni46       1.0     0.330488     0.615498     0.439310    Uiso  ? Ni
   Ni47       1.0     0.445984     0.615989     0.324569    Uiso  ? Ni
   Ni48       1.0     0.560463     0.729189     0.327037    Uiso  ? Ni
   Ni49       1.0     0.445923     0.731952     0.441028    Uiso  ? Ni
   Ni50       1.0     0.563033     0.615231     0.439086    Uiso  ? Ni
   Ni51       1.0     0.674943     0.614029     0.327092    Uiso  ? Ni
   Ni52       1.0     0.787140     0.727622     0.328313    Uiso  ? Ni
   Ni53       1.0     0.674661     0.728830     0.441743    Uiso  ? Ni
   Ni54       1.0     0.787541     0.613686     0.441757    Uiso  ? Ni
   Ni55       1.0     0.330947     0.842873     0.441887    Uiso  ? Ni
   Ni56       1.0     0.445466     0.842284     0.327493    Uiso  ? Ni
   Ni57       1.0     0.560182     0.842659     0.441808    Uiso  ? Ni
   Ni58       1.0     0.330703     0.268974     0.557260    Uiso  ? Ni
   Ni59       1.0     0.216654     0.269738     0.672010    Uiso  ? Ni
   Ni60       1.0     0.445040     0.157070     0.556837    Uiso  ? Ni
   Ni61       1.0     0.560057     0.267819     0.556530    Uiso  ? Ni
   Ni62       1.0     0.444779     0.269395     0.672136    Uiso  ? Ni
   Ni63       1.0     0.559314     0.157242     0.671192    Uiso  ? Ni
   Ni64       1.0     0.673671     0.157078     0.556579    Uiso  ? Ni
   Ni65       1.0     0.787584     0.270596     0.556495    Uiso  ? Ni
   Ni66       1.0     0.674167     0.270179     0.671176    Uiso  ? Ni
   Ni67       1.0     0.100041     0.498830     0.557665    Uiso  ? Ni
   Ni68       1.0     0.215959     0.381551     0.559093    Uiso  ? Ni
   Ni69       1.0     0.329703     0.496624     0.557807    Uiso  ? Ni
   Ni70       1.0     0.215616     0.498440     0.674615    Uiso  ? Ni
   Ni71       1.0     0.330082     0.382562     0.673229    Uiso  ? Ni
   Ni72       1.0     0.443935     0.380371     0.557341    Uiso  ? Ni
   Ni73       1.0     0.563040     0.498451     0.555243    Uiso  ? Ni
   Ni74       1.0     0.443580     0.496655     0.674862    Uiso  ? Ni
   Ni75       1.0     0.560299     0.381797     0.673637    Uiso  ? Ni
   Ni76       1.0     0.676674     0.383611     0.556318    Uiso  ? Ni
   Ni77       1.0     0.788061     0.499173     0.556258    Uiso  ? Ni
   Ni78       1.0     0.676895     0.498871     0.672023    Uiso  ? Ni
   Ni79       1.0     0.787889     0.384584     0.671099    Uiso  ? Ni
   Ni80       1.0     0.899994     0.385245     0.556455    Uiso  ? Ni
   Ni81       1.0     0.899908     0.499337     0.670542    Uiso  ? Ni
   Ni82       1.0     0.213691     0.616299     0.558985    Uiso  ? Ni
   Ni83       1.0     0.330109     0.731948     0.557216    Uiso  ? Ni
   Ni84       1.0     0.215910     0.729436     0.672345    Uiso  ? Ni
   Ni85       1.0     0.328347     0.614829     0.674810    Uiso  ? Ni
   Ni86       1.0     0.445599     0.617025     0.557185    Uiso  ? Ni
   Ni87       1.0     0.561169     0.731566     0.556463    Uiso  ? Ni
   Ni88       1.0     0.445134     0.731532     0.672675    Uiso  ? Ni
   Ni89       1.0     0.562515     0.616200     0.674194    Uiso  ? Ni
   Ni90       1.0     0.677282     0.614703     0.556300    Uiso  ? Ni
   Ni91       1.0     0.787673     0.728207     0.556480    Uiso  ? Ni
   Ni92       1.0     0.674762     0.728924     0.671341    Uiso  ? Ni
   Ni93       1.0     0.787794     0.613914     0.671217    Uiso  ? Ni
   Ni94       1.0     0.899840     0.613422     0.556449    Uiso  ? Ni
   Ni95       1.0     0.445474     0.843085     0.556780    Uiso  ? Ni
   Ni96       1.0     0.559968     0.842319     0.671374    Uiso  ? Ni
   Ni97       1.0     0.674149     0.842187     0.556555    Uiso  ? Ni
   Ni98       1.0     0.330861     0.270345     0.785560    Uiso  ? Ni
   Ni99       1.0     0.559426     0.270098     0.785811    Uiso  ? Ni
   Ni100      1.0     0.786960     0.271248     0.784608    Uiso  ? Ni
   Ni101      1.0     0.330052     0.498436     0.787152    Uiso  ? Ni
   Ni102      1.0     0.444737     0.383415     0.786873    Uiso  ? Ni
   Ni103      1.0     0.560218     0.498775     0.788404    Uiso  ? Ni
   Ni104      1.0     0.444844     0.498782     0.899203    Uiso  ? Ni
   Ni105      1.0     0.559354     0.384524     0.898911    Uiso  ? Ni
   Ni106      1.0     0.674176     0.384524     0.785713    Uiso  ? Ni
   Ni107      1.0     0.787630     0.499210     0.785309    Uiso  ? Ni
   Ni108      1.0     0.673798     0.499170     0.898984    Uiso  ? Ni
   Ni109      1.0     0.330528     0.728794     0.786146    Uiso  ? Ni
   Ni110      1.0     0.444984     0.614283     0.788560    Uiso  ? Ni
   Ni111      1.0     0.559900     0.728940     0.786259    Uiso  ? Ni
   Ni112      1.0     0.559750     0.613852     0.899211    Uiso  ? Ni
   Ni113      1.0     0.674734     0.613905     0.786225    Uiso  ? Ni
   Ni114      1.0     0.787110     0.727552     0.784763    Uiso  ? Ni
   H1         1.0     0.444847     0.497533     0.556899    Uiso  ? H
   H2         1.0     0.216726     0.383387     0.441767    Uiso  ? H
   H3         1.0     0.445671     0.498284     0.326226    Uiso  ? H
   H4         1.0     0.214969     0.614922     0.440783    Uiso  ? H
   H5         1.0     0.446457     0.615185     0.440382    Uiso  ? H
   H6         1.0     0.214570     0.498580     0.558391    Uiso  ? H
   H7         1.0     0.560777     0.382478     0.555939    Uiso  ? H
   H8         1.0     0.561244     0.498548     0.673191    Uiso  ? H
   H9         1.0     0.329569     0.615282     0.557470    Uiso  ? H
   H10        1.0     0.562542     0.615550     0.556330    Uiso  ? H
   H11        1.0     0.445049     0.614893     0.673984    Uiso  ? H
