
#======================================================================
# CRYSTAL DATA
#----------------------------------------------------------------------
data_VESTA_phase_1

_chemical_name_common                  ' Ni H'
_cell_length_a                         15.501709
_cell_length_b                         15.501709
_cell_length_c                         15.501709
_cell_angle_alpha                      90.000000
_cell_angle_beta                       90.000000
_cell_angle_gamma                      90.000000
_cell_volume                           1.000000
_space_group_name_H-M_alt              'P 1'
_space_group_IT_number                 1

loop_
_space_group_symop_operation_xyz
   'x, y, z'

loop_
   _atom_site_label
   _atom_site_occupancy
   _atom_site_fract_x
   _atom_site_fract_y
   _atom_site_fract_z
   _atom_site_adp_type
   _atom_site_U_iso_or_equiv
   _atom_site_type_symbol
   Ni1        1.0     0.217164     0.270608     0.214195    Uiso  ? Ni
   Ni2        1.0     0.445676     0.270205     0.213837    Uiso  ? Ni
   Ni3        1.0     0.673507     0.271261     0.214942    Uiso  ? Ni
   Ni4        1.0     0.331035     0.499451     0.101053    Uiso  ? Ni
   Ni5        1.0     0.216419     0.499342     0.213367    Uiso  ? Ni
   Ni6        1.0     0.331070     0.384412     0.213292    Uiso  ? Ni
   Ni7        1.0     0.445608     0.384881     0.101021    Uiso  ? Ni
   Ni8        1.0     0.560006     0.499441     0.101032    Uiso  ? Ni
   Ni9        1.0     0.445870     0.499315     0.211704    Uiso  ? Ni
   Ni10       1.0     0.560510     0.384631     0.213825    Uiso  ? Ni
   Ni11       1.0     0.674251     0.499303     0.214234    Uiso  ? Ni
   Ni12       1.0     0.216983     0.728450     0.214000    Uiso  ? Ni
   Ni13       1.0     0.330941     0.614347     0.213334    Uiso  ? Ni
   Ni14       1.0     0.445613     0.614022     0.101148    Uiso  ? Ni
   Ni15       1.0     0.445679     0.728872     0.213680    Uiso  ? Ni
   Ni16       1.0     0.560655     0.614085     0.213878    Uiso  ? Ni
   Ni17       1.0     0.673676     0.727740     0.214776    Uiso  ? Ni
   Ni18       1.0     0.331088     0.269609     0.327610    Uiso  ? Ni
   Ni19       1.0     0.216549     0.268125     0.442640    Uiso  ? Ni
   Ni20       1.0     0.331419     0.156871     0.443016    Uiso  ? Ni
   Ni21       1.0     0.445666     0.157187     0.328403    Uiso  ? Ni
   Ni22       1.0     0.560502     0.270161     0.328199    Uiso  ? Ni
   Ni23       1.0     0.446262     0.267681     0.442793    Uiso  ? Ni
   Ni24       1.0     0.560138     0.157150     0.443054    Uiso  ? Ni
   Ni25       1.0     0.786979     0.271364     0.329024    Uiso  ? Ni
   Ni26       1.0     0.674258     0.270489     0.442925    Uiso  ? Ni
   Ni27       1.0     0.102042     0.499344     0.327279    Uiso  ? Ni
   Ni28       1.0     0.100473     0.384180     0.442565    Uiso  ? Ni
   Ni29       1.0     0.216190     0.383859     0.325543    Uiso  ? Ni
   Ni30       1.0     0.329341     0.498991     0.325716    Uiso  ? Ni
   Ni31       1.0     0.214999     0.499091     0.440546    Uiso  ? Ni
   Ni32       1.0     0.331119     0.382399     0.442048    Uiso  ? Ni
   Ni33       1.0     0.446231     0.382182     0.325475    Uiso  ? Ni
   Ni34       1.0     0.562894     0.498931     0.326865    Uiso  ? Ni
   Ni35       1.0     0.447088     0.498597     0.441751    Uiso  ? Ni
   Ni36       1.0     0.562976     0.383205     0.442456    Uiso  ? Ni
   Ni37       1.0     0.674532     0.384560     0.328202    Uiso  ? Ni
   Ni38       1.0     0.787044     0.499248     0.328656    Uiso  ? Ni
   Ni39       1.0     0.675447     0.498839     0.442405    Uiso  ? Ni
   Ni40       1.0     0.787022     0.384975     0.442906    Uiso  ? Ni
   Ni41       1.0     0.899793     0.499316     0.443000    Uiso  ? Ni
   Ni42       1.0     0.100000     0.614564     0.442157    Uiso  ? Ni
   Ni43       1.0     0.215728     0.614885     0.324970    Uiso  ? Ni
   Ni44       1.0     0.330873     0.729767     0.326936    Uiso  ? Ni
   Ni45       1.0     0.215974     0.731133     0.442042    Uiso  ? Ni
   Ni46       1.0     0.330495     0.615956     0.439783    Uiso  ? Ni
   Ni47       1.0     0.446230     0.616464     0.324750    Uiso  ? Ni
   Ni48       1.0     0.560682     0.729151     0.327565    Uiso  ? Ni
   Ni49       1.0     0.446173     0.732024     0.441553    Uiso  ? Ni
   Ni50       1.0     0.563485     0.614979     0.440203    Uiso  ? Ni
   Ni51       1.0     0.675017     0.614029     0.327630    Uiso  ? Ni
   Ni52       1.0     0.787180     0.727622     0.328786    Uiso  ? Ni
   Ni53       1.0     0.674733     0.728748     0.442375    Uiso  ? Ni
   Ni54       1.0     0.787366     0.613572     0.442458    Uiso  ? Ni
   Ni55       1.0     0.331104     0.842943     0.442268    Uiso  ? Ni
   Ni56       1.0     0.445646     0.842341     0.327857    Uiso  ? Ni
   Ni57       1.0     0.560347     0.842656     0.442326    Uiso  ? Ni
   Ni58       1.0     0.331242     0.269314     0.558194    Uiso  ? Ni
   Ni59       1.0     0.216915     0.269987     0.672459    Uiso  ? Ni
   Ni60       1.0     0.445780     0.157289     0.557760    Uiso  ? Ni
   Ni61       1.0     0.560794     0.270030     0.557722    Uiso  ? Ni
   Ni62       1.0     0.445826     0.269947     0.672651    Uiso  ? Ni
   Ni63       1.0     0.559660     0.157621     0.671342    Uiso  ? Ni
   Ni64       1.0     0.673535     0.157589     0.557187    Uiso  ? Ni
   Ni65       1.0     0.787158     0.271179     0.557102    Uiso  ? Ni
   Ni66       1.0     0.673820     0.270952     0.671437    Uiso  ? Ni
   Ni67       1.0     0.100092     0.499001     0.558064    Uiso  ? Ni
   Ni68       1.0     0.215765     0.381753     0.559858    Uiso  ? Ni
   Ni69       1.0     0.330486     0.496767     0.559065    Uiso  ? Ni
   Ni70       1.0     0.215685     0.498553     0.675002    Uiso  ? Ni
   Ni71       1.0     0.330929     0.383045     0.673693    Uiso  ? Ni
   Ni72       1.0     0.446596     0.380902     0.560013    Uiso  ? Ni
   Ni73       1.0     0.563459     0.496717     0.558158    Uiso  ? Ni
   Ni74       1.0     0.446232     0.496682     0.675300    Uiso  ? Ni
   Ni75       1.0     0.561058     0.383575     0.672824    Uiso  ? Ni
   Ni76       1.0     0.675017     0.383935     0.557609    Uiso  ? Ni
   Ni77       1.0     0.787323     0.498844     0.557169    Uiso  ? Ni
   Ni78       1.0     0.674993     0.498506     0.672306    Uiso  ? Ni
   Ni79       1.0     0.787234     0.385012     0.671281    Uiso  ? Ni
   Ni80       1.0     0.900000     0.385405     0.556936    Uiso  ? Ni
   Ni81       1.0     0.899982     0.499322     0.670858    Uiso  ? Ni
   Ni82       1.0     0.213930     0.616344     0.559421    Uiso  ? Ni
   Ni83       1.0     0.330425     0.731905     0.557662    Uiso  ? Ni
   Ni84       1.0     0.216179     0.729398     0.672684    Uiso  ? Ni
   Ni85       1.0     0.328983     0.614579     0.675171    Uiso  ? Ni
   Ni86       1.0     0.446357     0.616767     0.558131    Uiso  ? Ni
   Ni87       1.0     0.561341     0.731189     0.557212    Uiso  ? Ni
   Ni88       1.0     0.445670     0.731236     0.673042    Uiso  ? Ni
   Ni89       1.0     0.562763     0.613968     0.674386    Uiso  ? Ni
   Ni90       1.0     0.676838     0.613923     0.557226    Uiso  ? Ni
   Ni91       1.0     0.787463     0.727960     0.557008    Uiso  ? Ni
   Ni92       1.0     0.674431     0.728394     0.671676    Uiso  ? Ni
   Ni93       1.0     0.787322     0.613406     0.671566    Uiso  ? Ni
   Ni94       1.0     0.899694     0.613244     0.556934    Uiso  ? Ni
   Ni95       1.0     0.445699     0.843129     0.557216    Uiso  ? Ni
   Ni96       1.0     0.560111     0.842459     0.671706    Uiso  ? Ni
   Ni97       1.0     0.674171     0.842189     0.557020    Uiso  ? Ni
   Ni98       1.0     0.331346     0.270652     0.785720    Uiso  ? Ni
   Ni99       1.0     0.559773     0.270936     0.785452    Uiso  ? Ni
   Ni100      1.0     0.786863     0.271555     0.784782    Uiso  ? Ni
   Ni101      1.0     0.330875     0.498485     0.786953    Uiso  ? Ni
   Ni102      1.0     0.445769     0.383868     0.786379    Uiso  ? Ni
   Ni103      1.0     0.560643     0.498486     0.786603    Uiso  ? Ni
   Ni104      1.0     0.445548     0.498750     0.898921    Uiso  ? Ni
   Ni105      1.0     0.559586     0.384992     0.898774    Uiso  ? Ni
   Ni106      1.0     0.673821     0.384899     0.785441    Uiso  ? Ni
   Ni107      1.0     0.787172     0.499175     0.785164    Uiso  ? Ni
   Ni108      1.0     0.673531     0.499154     0.898781    Uiso  ? Ni
   Ni109      1.0     0.330878     0.728701     0.786369    Uiso  ? Ni
   Ni110      1.0     0.445671     0.613893     0.788578    Uiso  ? Ni
   Ni111      1.0     0.560086     0.728396     0.786088    Uiso  ? Ni
   Ni112      1.0     0.559973     0.613380     0.898979    Uiso  ? Ni
   Ni113      1.0     0.674472     0.613449     0.786103    Uiso  ? Ni
   Ni114      1.0     0.786997     0.727373     0.784938    Uiso  ? Ni
   H1         1.0     0.446500     0.497605     0.558677    Uiso  ? H
   H2         1.0     0.216316     0.383509     0.442172    Uiso  ? H
   H3         1.0     0.445782     0.499280     0.326184    Uiso  ? H
   H4         1.0     0.446774     0.382503     0.442760    Uiso  ? H
   H5         1.0     0.215034     0.615180     0.441168    Uiso  ? H
   H6         1.0     0.446645     0.616011     0.440931    Uiso  ? H
   H7         1.0     0.215132     0.498658     0.558728    Uiso  ? H
   H8         1.0     0.330075     0.615218     0.557823    Uiso  ? H
   H9         1.0     0.562835     0.614253     0.557245    Uiso  ? H
   H10        1.0     0.445892     0.614389     0.674595    Uiso  ? H
