
#======================================================================
# CRYSTAL DATA
#----------------------------------------------------------------------
data_VESTA_phase_1

_chemical_name_common                  ' Ni H'
_cell_length_a                         15.509355
_cell_length_b                         15.509355
_cell_length_c                         15.509355
_cell_angle_alpha                      90.000000
_cell_angle_beta                       90.000000
_cell_angle_gamma                      90.000000
_cell_volume                           1.000000
_space_group_name_H-M_alt              'P 1'
_space_group_IT_number                 1

loop_
_space_group_symop_operation_xyz
   'x, y, z'

loop_
   _atom_site_label
   _atom_site_occupancy
   _atom_site_fract_x
   _atom_site_fract_y
   _atom_site_fract_z
   _atom_site_adp_type
   _atom_site_U_iso_or_equiv
   _atom_site_type_symbol
   Ni1        1.0     0.216625     0.270885     0.214365    Uiso  ? Ni
   Ni2        1.0     0.445890     0.270361     0.213868    Uiso  ? Ni
   Ni3        1.0     0.673703     0.271657     0.215005    Uiso  ? Ni
   Ni4        1.0     0.331438     0.500090     0.100205    Uiso  ? Ni
   Ni5        1.0     0.215833     0.499792     0.211812    Uiso  ? Ni
   Ni6        1.0     0.330921     0.384535     0.211699    Uiso  ? Ni
   Ni7        1.0     0.446097     0.385426     0.100943    Uiso  ? Ni
   Ni8        1.0     0.560320     0.500155     0.101127    Uiso  ? Ni
   Ni9        1.0     0.446799     0.500393     0.211668    Uiso  ? Ni
   Ni10       1.0     0.560996     0.385266     0.213976    Uiso  ? Ni
   Ni11       1.0     0.674284     0.500206     0.214485    Uiso  ? Ni
   Ni12       1.0     0.216794     0.729489     0.214113    Uiso  ? Ni
   Ni13       1.0     0.331507     0.615636     0.211730    Uiso  ? Ni
   Ni14       1.0     0.446200     0.614861     0.100702    Uiso  ? Ni
   Ni15       1.0     0.446061     0.729620     0.214084    Uiso  ? Ni
   Ni16       1.0     0.560784     0.615096     0.214205    Uiso  ? Ni
   Ni17       1.0     0.673625     0.728514     0.215085    Uiso  ? Ni
   Ni18       1.0     0.330624     0.268432     0.328474    Uiso  ? Ni
   Ni19       1.0     0.215619     0.270177     0.443913    Uiso  ? Ni
   Ni20       1.0     0.330473     0.157076     0.443502    Uiso  ? Ni
   Ni21       1.0     0.445698     0.157097     0.328496    Uiso  ? Ni
   Ni22       1.0     0.560956     0.269820     0.327924    Uiso  ? Ni
   Ni23       1.0     0.445447     0.267689     0.442635    Uiso  ? Ni
   Ni24       1.0     0.560081     0.156991     0.442701    Uiso  ? Ni
   Ni25       1.0     0.787175     0.271801     0.328945    Uiso  ? Ni
   Ni26       1.0     0.674787     0.270562     0.442539    Uiso  ? Ni
   Ni27       1.0     0.100000     0.499698     0.328794    Uiso  ? Ni
   Ni28       1.0     0.101899     0.384724     0.444123    Uiso  ? Ni
   Ni29       1.0     0.213765     0.382716     0.328349    Uiso  ? Ni
   Ni30       1.0     0.330654     0.500040     0.327379    Uiso  ? Ni
   Ni31       1.0     0.214382     0.498334     0.445554    Uiso  ? Ni
   Ni32       1.0     0.328043     0.383320     0.444933    Uiso  ? Ni
   Ni33       1.0     0.447765     0.382664     0.325956    Uiso  ? Ni
   Ni34       1.0     0.563289     0.500460     0.327292    Uiso  ? Ni
   Ni35       1.0     0.446044     0.501636     0.442420    Uiso  ? Ni
   Ni36       1.0     0.563177     0.383934     0.440388    Uiso  ? Ni
   Ni37       1.0     0.675011     0.385218     0.327829    Uiso  ? Ni
   Ni38       1.0     0.787257     0.500194     0.328528    Uiso  ? Ni
   Ni39       1.0     0.676090     0.500454     0.441714    Uiso  ? Ni
   Ni40       1.0     0.787642     0.385689     0.442368    Uiso  ? Ni
   Ni41       1.0     0.900000     0.500111     0.442877    Uiso  ? Ni
   Ni42       1.0     0.100245     0.614862     0.444070    Uiso  ? Ni
   Ni43       1.0     0.214199     0.617030     0.326963    Uiso  ? Ni
   Ni44       1.0     0.331355     0.731819     0.328385    Uiso  ? Ni
   Ni45       1.0     0.216141     0.731514     0.443838    Uiso  ? Ni
   Ni46       1.0     0.331325     0.616878     0.444778    Uiso  ? Ni
   Ni47       1.0     0.448138     0.617983     0.327309    Uiso  ? Ni
   Ni48       1.0     0.560802     0.730208     0.328154    Uiso  ? Ni
   Ni49       1.0     0.445962     0.731119     0.442586    Uiso  ? Ni
   Ni50       1.0     0.561755     0.616661     0.440389    Uiso  ? Ni
   Ni51       1.0     0.674701     0.615178     0.328116    Uiso  ? Ni
   Ni52       1.0     0.787129     0.728385     0.328997    Uiso  ? Ni
   Ni53       1.0     0.674461     0.729404     0.442541    Uiso  ? Ni
   Ni54       1.0     0.787794     0.614665     0.442374    Uiso  ? Ni
   Ni55       1.0     0.331322     0.843122     0.443467    Uiso  ? Ni
   Ni56       1.0     0.445926     0.842804     0.328751    Uiso  ? Ni
   Ni57       1.0     0.559897     0.842906     0.442685    Uiso  ? Ni
   Ni58       1.0     0.329247     0.269236     0.558217    Uiso  ? Ni
   Ni59       1.0     0.215999     0.270752     0.672025    Uiso  ? Ni
   Ni60       1.0     0.444913     0.156878     0.557524    Uiso  ? Ni
   Ni61       1.0     0.560720     0.268213     0.557163    Uiso  ? Ni
   Ni62       1.0     0.444542     0.268168     0.672772    Uiso  ? Ni
   Ni63       1.0     0.559763     0.157413     0.671830    Uiso  ? Ni
   Ni64       1.0     0.674043     0.157487     0.557189    Uiso  ? Ni
   Ni65       1.0     0.787800     0.271245     0.557075    Uiso  ? Ni
   Ni66       1.0     0.674784     0.270542     0.671832    Uiso  ? Ni
   Ni67       1.0     0.102268     0.499698     0.558726    Uiso  ? Ni
   Ni68       1.0     0.214931     0.384201     0.558872    Uiso  ? Ni
   Ni69       1.0     0.327244     0.500069     0.558959    Uiso  ? Ni
   Ni70       1.0     0.215338     0.499778     0.672723    Uiso  ? Ni
   Ni71       1.0     0.327278     0.384288     0.672951    Uiso  ? Ni
   Ni72       1.0     0.443248     0.382175     0.557842    Uiso  ? Ni
   Ni73       1.0     0.563171     0.500325     0.555781    Uiso  ? Ni
   Ni74       1.0     0.442802     0.500291     0.674871    Uiso  ? Ni
   Ni75       1.0     0.562266     0.382845     0.674451    Uiso  ? Ni
   Ni76       1.0     0.677396     0.384597     0.556982    Uiso  ? Ni
   Ni77       1.0     0.788227     0.500170     0.556828    Uiso  ? Ni
   Ni78       1.0     0.677236     0.500139     0.672573    Uiso  ? Ni
   Ni79       1.0     0.787983     0.385411     0.671762    Uiso  ? Ni
   Ni80       1.0     0.899916     0.386022     0.556986    Uiso  ? Ni
   Ni81       1.0     0.899926     0.500111     0.671084    Uiso  ? Ni
   Ni82       1.0     0.215279     0.615521     0.560133    Uiso  ? Ni
   Ni83       1.0     0.329988     0.730934     0.558214    Uiso  ? Ni
   Ni84       1.0     0.216181     0.729567     0.672227    Uiso  ? Ni
   Ni85       1.0     0.327872     0.615851     0.673015    Uiso  ? Ni
   Ni86       1.0     0.443808     0.618408     0.556685    Uiso  ? Ni
   Ni87       1.0     0.560557     0.731848     0.556910    Uiso  ? Ni
   Ni88       1.0     0.444733     0.731888     0.672561    Uiso  ? Ni
   Ni89       1.0     0.562186     0.617401     0.674199    Uiso  ? Ni
   Ni90       1.0     0.677144     0.615722     0.556732    Uiso  ? Ni
   Ni91       1.0     0.787758     0.728926     0.557030    Uiso  ? Ni
   Ni92       1.0     0.674723     0.729619     0.671747    Uiso  ? Ni
   Ni93       1.0     0.787911     0.614815     0.671675    Uiso  ? Ni
   Ni94       1.0     0.899973     0.614205     0.557000    Uiso  ? Ni
   Ni95       1.0     0.445131     0.843020     0.557233    Uiso  ? Ni
   Ni96       1.0     0.559790     0.842695     0.671748    Uiso  ? Ni
   Ni97       1.0     0.673970     0.842601     0.557121    Uiso  ? Ni
   Ni98       1.0     0.330273     0.271107     0.785991    Uiso  ? Ni
   Ni99       1.0     0.559717     0.270558     0.786611    Uiso  ? Ni
   Ni100      1.0     0.787145     0.271904     0.785241    Uiso  ? Ni
   Ni101      1.0     0.329140     0.500051     0.786981    Uiso  ? Ni
   Ni102      1.0     0.444373     0.384667     0.788810    Uiso  ? Ni
   Ni103      1.0     0.560403     0.500117     0.789014    Uiso  ? Ni
   Ni104      1.0     0.444574     0.500077     0.899795    Uiso  ? Ni
   Ni105      1.0     0.559601     0.385419     0.899594    Uiso  ? Ni
   Ni106      1.0     0.674739     0.385379     0.786632    Uiso  ? Ni
   Ni107      1.0     0.787742     0.500113     0.785867    Uiso  ? Ni
   Ni108      1.0     0.673890     0.500091     0.899503    Uiso  ? Ni
   Ni109      1.0     0.330410     0.729058     0.785988    Uiso  ? Ni
   Ni110      1.0     0.444501     0.615554     0.788912    Uiso  ? Ni
   Ni111      1.0     0.559747     0.729586     0.786594    Uiso  ? Ni
   Ni112      1.0     0.559640     0.614754     0.899653    Uiso  ? Ni
   Ni113      1.0     0.674682     0.614819     0.786586    Uiso  ? Ni
   Ni114      1.0     0.787113     0.728259     0.785208    Uiso  ? Ni
   H1         1.0     0.443394     0.500775     0.557222    Uiso  ? H
   H2         1.0     0.330313     0.383597     0.327741    Uiso  ? H
   H3         1.0     0.214619     0.499465     0.328224    Uiso  ? H
   H4         1.0     0.447890     0.500758     0.326877    Uiso  ? H
   H5         1.0     0.445594     0.383848     0.442173    Uiso  ? H
   H6         1.0     0.331722     0.616573     0.327967    Uiso  ? H
   H7         1.0     0.215684     0.615112     0.444676    Uiso  ? H
   H8         1.0     0.561612     0.383730     0.557107    Uiso  ? H
   H9         1.0     0.443951     0.383620     0.673967    Uiso  ? H
   H10        1.0     0.561322     0.500150     0.673750    Uiso  ? H
   H11        1.0     0.561094     0.616551     0.556227    Uiso  ? H
   H12        1.0     0.444174     0.616810     0.673666    Uiso  ? H
