
#======================================================================
# CRYSTAL DATA
#----------------------------------------------------------------------
data_VESTA_phase_1

_chemical_name_common                  ' Ni H'
_cell_length_a                         15.511639
_cell_length_b                         15.511639
_cell_length_c                         15.511639
_cell_angle_alpha                      90.000000
_cell_angle_beta                       90.000000
_cell_angle_gamma                      90.000000
_cell_volume                           1.000000
_space_group_name_H-M_alt              'P 1'
_space_group_IT_number                 1

loop_
_space_group_symop_operation_xyz
   'x, y, z'

loop_
   _atom_site_label
   _atom_site_occupancy
   _atom_site_fract_x
   _atom_site_fract_y
   _atom_site_fract_z
   _atom_site_adp_type
   _atom_site_U_iso_or_equiv
   _atom_site_type_symbol
   Ni1        1.0     0.217056     0.270726     0.213774    Uiso  ? Ni
   Ni2        1.0     0.446002     0.270403     0.213488    Uiso  ? Ni
   Ni3        1.0     0.673925     0.271689     0.214719    Uiso  ? Ni
   Ni4        1.0     0.331431     0.499854     0.100284    Uiso  ? Ni
   Ni5        1.0     0.216097     0.500198     0.211455    Uiso  ? Ni
   Ni6        1.0     0.331356     0.384336     0.212656    Uiso  ? Ni
   Ni7        1.0     0.445951     0.385278     0.100835    Uiso  ? Ni
   Ni8        1.0     0.560455     0.500120     0.100907    Uiso  ? Ni
   Ni9        1.0     0.446516     0.499881     0.210842    Uiso  ? Ni
   Ni10       1.0     0.561025     0.384914     0.213327    Uiso  ? Ni
   Ni11       1.0     0.674811     0.500159     0.213833    Uiso  ? Ni
   Ni12       1.0     0.216815     0.729568     0.214023    Uiso  ? Ni
   Ni13       1.0     0.331084     0.615663     0.211528    Uiso  ? Ni
   Ni14       1.0     0.446126     0.614932     0.100636    Uiso  ? Ni
   Ni15       1.0     0.446069     0.730068     0.213524    Uiso  ? Ni
   Ni16       1.0     0.561127     0.615331     0.213281    Uiso  ? Ni
   Ni17       1.0     0.673853     0.728671     0.214801    Uiso  ? Ni
   Ni18       1.0     0.331300     0.269412     0.327061    Uiso  ? Ni
   Ni19       1.0     0.215936     0.268081     0.442583    Uiso  ? Ni
   Ni20       1.0     0.331299     0.156788     0.442485    Uiso  ? Ni
   Ni21       1.0     0.445927     0.157327     0.327976    Uiso  ? Ni
   Ni22       1.0     0.561073     0.270028     0.327596    Uiso  ? Ni
   Ni23       1.0     0.446496     0.267280     0.441918    Uiso  ? Ni
   Ni24       1.0     0.560597     0.157311     0.442639    Uiso  ? Ni
   Ni25       1.0     0.787367     0.271829     0.328828    Uiso  ? Ni
   Ni26       1.0     0.675065     0.270485     0.442623    Uiso  ? Ni
   Ni27       1.0     0.100058     0.500375     0.327867    Uiso  ? Ni
   Ni28       1.0     0.100015     0.385028     0.442749    Uiso  ? Ni
   Ni29       1.0     0.215517     0.382780     0.325477    Uiso  ? Ni
   Ni30       1.0     0.330656     0.498896     0.325542    Uiso  ? Ni
   Ni31       1.0     0.214480     0.502237     0.442860    Uiso  ? Ni
   Ni32       1.0     0.330460     0.382608     0.440782    Uiso  ? Ni
   Ni33       1.0     0.446942     0.382027     0.324761    Uiso  ? Ni
   Ni34       1.0     0.563448     0.499945     0.325432    Uiso  ? Ni
   Ni35       1.0     0.445453     0.500566     0.441808    Uiso  ? Ni
   Ni36       1.0     0.563758     0.382381     0.441637    Uiso  ? Ni
   Ni37       1.0     0.675334     0.384946     0.327675    Uiso  ? Ni
   Ni38       1.0     0.787619     0.500211     0.328241    Uiso  ? Ni
   Ni39       1.0     0.677732     0.500223     0.442241    Uiso  ? Ni
   Ni40       1.0     0.787694     0.385401     0.442713    Uiso  ? Ni
   Ni41       1.0     0.899765     0.500199     0.442920    Uiso  ? Ni
   Ni42       1.0     0.101554     0.616116     0.443341    Uiso  ? Ni
   Ni43       1.0     0.214152     0.617738     0.327513    Uiso  ? Ni
   Ni44       1.0     0.330904     0.732125     0.328019    Uiso  ? Ni
   Ni45       1.0     0.215676     0.730771     0.443288    Uiso  ? Ni
   Ni46       1.0     0.328572     0.618283     0.444154    Uiso  ? Ni
   Ni47       1.0     0.447837     0.618034     0.325485    Uiso  ? Ni
   Ni48       1.0     0.561171     0.730488     0.327878    Uiso  ? Ni
   Ni49       1.0     0.446014     0.732915     0.442708    Uiso  ? Ni
   Ni50       1.0     0.563701     0.618149     0.442295    Uiso  ? Ni
   Ni51       1.0     0.675094     0.615366     0.327827    Uiso  ? Ni
   Ni52       1.0     0.787273     0.728519     0.328882    Uiso  ? Ni
   Ni53       1.0     0.675056     0.729914     0.442781    Uiso  ? Ni
   Ni54       1.0     0.787700     0.615006     0.442717    Uiso  ? Ni
   Ni55       1.0     0.330811     0.843211     0.443325    Uiso  ? Ni
   Ni56       1.0     0.445996     0.843180     0.328340    Uiso  ? Ni
   Ni57       1.0     0.560426     0.842937     0.442889    Uiso  ? Ni
   Ni58       1.0     0.330744     0.267665     0.557940    Uiso  ? Ni
   Ni59       1.0     0.216070     0.270035     0.672747    Uiso  ? Ni
   Ni60       1.0     0.446133     0.156832     0.557313    Uiso  ? Ni
   Ni61       1.0     0.561735     0.269139     0.557261    Uiso  ? Ni
   Ni62       1.0     0.445846     0.268047     0.672886    Uiso  ? Ni
   Ni63       1.0     0.560318     0.157572     0.671548    Uiso  ? Ni
   Ni64       1.0     0.674160     0.157694     0.557071    Uiso  ? Ni
   Ni65       1.0     0.787505     0.271617     0.557024    Uiso  ? Ni
   Ni66       1.0     0.674859     0.270740     0.671531    Uiso  ? Ni
   Ni67       1.0     0.100000     0.500972     0.558372    Uiso  ? Ni
   Ni68       1.0     0.213809     0.383209     0.559729    Uiso  ? Ni
   Ni69       1.0     0.329812     0.502279     0.559247    Uiso  ? Ni
   Ni70       1.0     0.215200     0.500953     0.674968    Uiso  ? Ni
   Ni71       1.0     0.328653     0.384095     0.675181    Uiso  ? Ni
   Ni72       1.0     0.447896     0.381670     0.557953    Uiso  ? Ni
   Ni73       1.0     0.564088     0.500558     0.557674    Uiso  ? Ni
   Ni74       1.0     0.444365     0.500550     0.675566    Uiso  ? Ni
   Ni75       1.0     0.563271     0.382865     0.673062    Uiso  ? Ni
   Ni76       1.0     0.675862     0.384545     0.557196    Uiso  ? Ni
   Ni77       1.0     0.787967     0.500199     0.557131    Uiso  ? Ni
   Ni78       1.0     0.677402     0.500277     0.672317    Uiso  ? Ni
   Ni79       1.0     0.787673     0.385501     0.671328    Uiso  ? Ni
   Ni80       1.0     0.899992     0.386160     0.556944    Uiso  ? Ni
   Ni81       1.0     0.899915     0.500196     0.670941    Uiso  ? Ni
   Ni82       1.0     0.214799     0.618425     0.558665    Uiso  ? Ni
   Ni83       1.0     0.330252     0.731290     0.558133    Uiso  ? Ni
   Ni84       1.0     0.216173     0.730134     0.672300    Uiso  ? Ni
   Ni85       1.0     0.328239     0.617038     0.673451    Uiso  ? Ni
   Ni86       1.0     0.446124     0.619272     0.558140    Uiso  ? Ni
   Ni87       1.0     0.561358     0.731045     0.557412    Uiso  ? Ni
   Ni88       1.0     0.445390     0.732243     0.672598    Uiso  ? Ni
   Ni89       1.0     0.562837     0.617698     0.672791    Uiso  ? Ni
   Ni90       1.0     0.676076     0.615989     0.557327    Uiso  ? Ni
   Ni91       1.0     0.787588     0.728829     0.557070    Uiso  ? Ni
   Ni92       1.0     0.674789     0.729637     0.671522    Uiso  ? Ni
   Ni93       1.0     0.787762     0.614938     0.671375    Uiso  ? Ni
   Ni94       1.0     0.900000     0.614236     0.556946    Uiso  ? Ni
   Ni95       1.0     0.445644     0.843193     0.557454    Uiso  ? Ni
   Ni96       1.0     0.560132     0.842709     0.671502    Uiso  ? Ni
   Ni97       1.0     0.674044     0.842583     0.557141    Uiso  ? Ni
   Ni98       1.0     0.330846     0.270691     0.786489    Uiso  ? Ni
   Ni99       1.0     0.560274     0.270857     0.786263    Uiso  ? Ni
   Ni100      1.0     0.787189     0.272083     0.784986    Uiso  ? Ni
   Ni101      1.0     0.329898     0.500702     0.787718    Uiso  ? Ni
   Ni102      1.0     0.445597     0.384688     0.789009    Uiso  ? Ni
   Ni103      1.0     0.561015     0.500314     0.788564    Uiso  ? Ni
   Ni104      1.0     0.445179     0.500336     0.899716    Uiso  ? Ni
   Ni105      1.0     0.560116     0.385621     0.899618    Uiso  ? Ni
   Ni106      1.0     0.674778     0.385524     0.786201    Uiso  ? Ni
   Ni107      1.0     0.787772     0.500230     0.785601    Uiso  ? Ni
   Ni108      1.0     0.674110     0.500263     0.899298    Uiso  ? Ni
   Ni109      1.0     0.330747     0.729543     0.786127    Uiso  ? Ni
   Ni110      1.0     0.445226     0.615971     0.788664    Uiso  ? Ni
   Ni111      1.0     0.560102     0.729536     0.786122    Uiso  ? Ni
   Ni112      1.0     0.559980     0.614898     0.899519    Uiso  ? Ni
   Ni113      1.0     0.674667     0.614960     0.786075    Uiso  ? Ni
   Ni114      1.0     0.787174     0.728330     0.784970    Uiso  ? Ni
   H1         1.0     0.445969     0.500796     0.558023    Uiso  ? H
   H2         1.0     0.215190     0.500209     0.326970    Uiso  ? H
   H3         1.0     0.215081     0.384442     0.442204    Uiso  ? H
   H4         1.0     0.446739     0.499603     0.325243    Uiso  ? H
   H5         1.0     0.446794     0.382969     0.441213    Uiso  ? H
   H6         1.0     0.563212     0.500315     0.441898    Uiso  ? H
   H7         1.0     0.330508     0.616189     0.327624    Uiso  ? H
   H8         1.0     0.446196     0.617581     0.442578    Uiso  ? H
   H9         1.0     0.330501     0.384273     0.558267    Uiso  ? H
   H10        1.0     0.215070     0.501843     0.559003    Uiso  ? H
   H11        1.0     0.446029     0.383613     0.674262    Uiso  ? H
   H12        1.0     0.562240     0.500327     0.673355    Uiso  ? H
   H13        1.0     0.444937     0.616958     0.673630    Uiso  ? H
