
#======================================================================
# CRYSTAL DATA
#----------------------------------------------------------------------
data_VESTA_phase_1

_chemical_name_common                  ' Ni H'
_cell_length_a                         15.490615
_cell_length_b                         15.490615
_cell_length_c                         15.490615
_cell_angle_alpha                      90.000000
_cell_angle_beta                       90.000000
_cell_angle_gamma                      90.000000
_cell_volume                           1.000000
_space_group_name_H-M_alt              'P 1'
_space_group_IT_number                 1

loop_
_space_group_symop_operation_xyz
   'x, y, z'

loop_
   _atom_site_label
   _atom_site_occupancy
   _atom_site_fract_x
   _atom_site_fract_y
   _atom_site_fract_z
   _atom_site_adp_type
   _atom_site_U_iso_or_equiv
   _atom_site_type_symbol
   Ni1        1.0     0.216896     0.271282     0.213514    Uiso  ? Ni
   Ni2        1.0     0.445093     0.271319     0.213639    Uiso  ? Ni
   Ni3        1.0     0.672973     0.271725     0.214026    Uiso  ? Ni
   Ni4        1.0     0.330998     0.499855     0.100819    Uiso  ? Ni
   Ni5        1.0     0.216591     0.500183     0.213487    Uiso  ? Ni
   Ni6        1.0     0.331104     0.385473     0.213366    Uiso  ? Ni
   Ni7        1.0     0.445089     0.385763     0.100730    Uiso  ? Ni
   Ni8        1.0     0.558969     0.499789     0.100870    Uiso  ? Ni
   Ni9        1.0     0.445134     0.499518     0.213512    Uiso  ? Ni
   Ni10       1.0     0.559318     0.385407     0.213769    Uiso  ? Ni
   Ni11       1.0     0.673328     0.499735     0.213738    Uiso  ? Ni
   Ni12       1.0     0.216739     0.728245     0.213716    Uiso  ? Ni
   Ni13       1.0     0.330460     0.614249     0.213346    Uiso  ? Ni
   Ni14       1.0     0.444982     0.613831     0.100992    Uiso  ? Ni
   Ni15       1.0     0.444936     0.728581     0.213448    Uiso  ? Ni
   Ni16       1.0     0.559526     0.614124     0.213571    Uiso  ? Ni
   Ni17       1.0     0.673053     0.727991     0.213963    Uiso  ? Ni
   Ni18       1.0     0.331000     0.270587     0.326658    Uiso  ? Ni
   Ni19       1.0     0.216362     0.268789     0.441110    Uiso  ? Ni
   Ni20       1.0     0.331083     0.157050     0.441366    Uiso  ? Ni
   Ni21       1.0     0.445090     0.157414     0.327334    Uiso  ? Ni
   Ni22       1.0     0.559397     0.270821     0.326833    Uiso  ? Ni
   Ni23       1.0     0.445285     0.269651     0.440145    Uiso  ? Ni
   Ni24       1.0     0.559324     0.157210     0.441208    Uiso  ? Ni
   Ni25       1.0     0.786794     0.271728     0.327797    Uiso  ? Ni
   Ni26       1.0     0.673750     0.270961     0.441161    Uiso  ? Ni
   Ni27       1.0     0.101926     0.500219     0.326700    Uiso  ? Ni
   Ni28       1.0     0.100312     0.385202     0.441250    Uiso  ? Ni
   Ni29       1.0     0.216353     0.385135     0.324883    Uiso  ? Ni
   Ni30       1.0     0.330512     0.499898     0.325756    Uiso  ? Ni
   Ni31       1.0     0.215205     0.501585     0.438668    Uiso  ? Ni
   Ni32       1.0     0.331711     0.383700     0.439339    Uiso  ? Ni
   Ni33       1.0     0.445282     0.384434     0.325706    Uiso  ? Ni
   Ni34       1.0     0.560221     0.499502     0.325734    Uiso  ? Ni
   Ni35       1.0     0.445510     0.498218     0.437495    Uiso  ? Ni
   Ni36       1.0     0.560326     0.384149     0.438438    Uiso  ? Ni
   Ni37       1.0     0.673792     0.385331     0.326891    Uiso  ? Ni
   Ni38       1.0     0.787105     0.499743     0.327409    Uiso  ? Ni
   Ni39       1.0     0.674891     0.499449     0.440270    Uiso  ? Ni
   Ni40       1.0     0.787440     0.385445     0.441199    Uiso  ? Ni
   Ni41       1.0     0.900000     0.499827     0.441877    Uiso  ? Ni
   Ni42       1.0     0.102032     0.615034     0.441164    Uiso  ? Ni
   Ni43       1.0     0.215914     0.615058     0.326135    Uiso  ? Ni
   Ni44       1.0     0.330333     0.729063     0.326715    Uiso  ? Ni
   Ni45       1.0     0.215853     0.729291     0.440997    Uiso  ? Ni
   Ni46       1.0     0.328283     0.615994     0.439518    Uiso  ? Ni
   Ni47       1.0     0.444884     0.614791     0.324426    Uiso  ? Ni
   Ni48       1.0     0.559572     0.729052     0.326666    Uiso  ? Ni
   Ni49       1.0     0.444786     0.731580     0.440302    Uiso  ? Ni
   Ni50       1.0     0.561936     0.615109     0.438548    Uiso  ? Ni
   Ni51       1.0     0.674149     0.614169     0.326616    Uiso  ? Ni
   Ni52       1.0     0.786853     0.727975     0.327758    Uiso  ? Ni
   Ni53       1.0     0.674118     0.728987     0.441203    Uiso  ? Ni
   Ni54       1.0     0.787277     0.614070     0.441213    Uiso  ? Ni
   Ni55       1.0     0.330206     0.842643     0.441382    Uiso  ? Ni
   Ni56       1.0     0.444887     0.842617     0.327088    Uiso  ? Ni
   Ni57       1.0     0.559547     0.842819     0.441272    Uiso  ? Ni
   Ni58       1.0     0.330194     0.269002     0.555629    Uiso  ? Ni
   Ni59       1.0     0.215688     0.269763     0.671110    Uiso  ? Ni
   Ni60       1.0     0.444910     0.156966     0.555566    Uiso  ? Ni
   Ni61       1.0     0.560167     0.268440     0.555540    Uiso  ? Ni
   Ni62       1.0     0.445137     0.268094     0.671166    Uiso  ? Ni
   Ni63       1.0     0.559631     0.156955     0.670524    Uiso  ? Ni
   Ni64       1.0     0.673613     0.157293     0.555835    Uiso  ? Ni
   Ni65       1.0     0.787380     0.271121     0.555862    Uiso  ? Ni
   Ni66       1.0     0.674225     0.270550     0.670571    Uiso  ? Ni
   Ni67       1.0     0.100000     0.500269     0.555984    Uiso  ? Ni
   Ni68       1.0     0.215291     0.382793     0.557328    Uiso  ? Ni
   Ni69       1.0     0.329554     0.499818     0.553926    Uiso  ? Ni
   Ni70       1.0     0.213432     0.500155     0.673003    Uiso  ? Ni
   Ni71       1.0     0.328458     0.382421     0.671990    Uiso  ? Ni
   Ni72       1.0     0.443999     0.381700     0.554007    Uiso  ? Ni
   Ni73       1.0     0.562609     0.499586     0.555196    Uiso  ? Ni
   Ni74       1.0     0.446777     0.499612     0.673616    Uiso  ? Ni
   Ni75       1.0     0.562388     0.383941     0.672948    Uiso  ? Ni
   Ni76       1.0     0.676450     0.384634     0.555547    Uiso  ? Ni
   Ni77       1.0     0.787518     0.499763     0.555879    Uiso  ? Ni
   Ni78       1.0     0.675101     0.499784     0.671380    Uiso  ? Ni
   Ni79       1.0     0.787244     0.385460     0.670568    Uiso  ? Ni
   Ni80       1.0     0.899867     0.385767     0.555968    Uiso  ? Ni
   Ni81       1.0     0.899922     0.499822     0.670046    Uiso  ? Ni
   Ni82       1.0     0.214977     0.617364     0.555823    Uiso  ? Ni
   Ni83       1.0     0.329426     0.730743     0.555633    Uiso  ? Ni
   Ni84       1.0     0.215496     0.729771     0.670845    Uiso  ? Ni
   Ni85       1.0     0.327789     0.617291     0.671921    Uiso  ? Ni
   Ni86       1.0     0.443563     0.617682     0.555456    Uiso  ? Ni
   Ni87       1.0     0.560397     0.731423     0.555875    Uiso  ? Ni
   Ni88       1.0     0.444935     0.731763     0.671446    Uiso  ? Ni
   Ni89       1.0     0.562495     0.615660     0.673227    Uiso  ? Ni
   Ni90       1.0     0.676696     0.614907     0.555835    Uiso  ? Ni
   Ni91       1.0     0.787425     0.728581     0.555928    Uiso  ? Ni
   Ni92       1.0     0.674306     0.729165     0.670686    Uiso  ? Ni
   Ni93       1.0     0.787320     0.614178     0.670663    Uiso  ? Ni
   Ni94       1.0     0.899811     0.613878     0.555961    Uiso  ? Ni
   Ni95       1.0     0.444698     0.843045     0.555903    Uiso  ? Ni
   Ni96       1.0     0.559617     0.842835     0.670639    Uiso  ? Ni
   Ni97       1.0     0.673719     0.842528     0.555939    Uiso  ? Ni
   Ni98       1.0     0.330369     0.270343     0.785464    Uiso  ? Ni
   Ni99       1.0     0.559734     0.270509     0.785365    Uiso  ? Ni
   Ni100      1.0     0.786894     0.271647     0.784201    Uiso  ? Ni
   Ni101      1.0     0.329849     0.499877     0.787932    Uiso  ? Ni
   Ni102      1.0     0.445226     0.384271     0.788006    Uiso  ? Ni
   Ni103      1.0     0.560885     0.499807     0.786773    Uiso  ? Ni
   Ni104      1.0     0.445343     0.499853     0.899270    Uiso  ? Ni
   Ni105      1.0     0.559748     0.385344     0.898759    Uiso  ? Ni
   Ni106      1.0     0.674284     0.385312     0.785403    Uiso  ? Ni
   Ni107      1.0     0.787125     0.499816     0.784559    Uiso  ? Ni
   Ni108      1.0     0.673612     0.499841     0.898558    Uiso  ? Ni
   Ni109      1.0     0.330217     0.729360     0.785459    Uiso  ? Ni
   Ni110      1.0     0.445091     0.615362     0.787906    Uiso  ? Ni
   Ni111      1.0     0.559709     0.729214     0.785388    Uiso  ? Ni
   Ni112      1.0     0.559708     0.614348     0.898695    Uiso  ? Ni
   Ni113      1.0     0.674351     0.614350     0.785460    Uiso  ? Ni
   Ni114      1.0     0.786936     0.728062     0.784247    Uiso  ? Ni
   H1         1.0     0.445073     0.499137     0.554592    Uiso  ? H
   H2         1.0     0.216312     0.384773     0.440784    Uiso  ? H
   H3         1.0     0.444478     0.615218     0.439261    Uiso  ? H
   H4         1.0     0.214520     0.500874     0.555848    Uiso  ? H
   H5         1.0     0.329284     0.499809     0.671889    Uiso  ? H
   H6         1.0     0.561234     0.383789     0.555160    Uiso  ? H
   H7         1.0     0.445345     0.383112     0.671891    Uiso  ? H
   H8         1.0     0.561538     0.615727     0.555934    Uiso  ? H
   H9         1.0     0.445126     0.616341     0.672328    Uiso  ? H
