
#======================================================================
# CRYSTAL DATA
#----------------------------------------------------------------------
data_VESTA_phase_1

_chemical_name_common                  ' Ni H'
_cell_length_a                         15.480430
_cell_length_b                         15.480430
_cell_length_c                         15.480430
_cell_angle_alpha                      90.000000
_cell_angle_beta                       90.000000
_cell_angle_gamma                      90.000000
_cell_volume                           1.000000
_space_group_name_H-M_alt              'P 1'
_space_group_IT_number                 1

loop_
_space_group_symop_operation_xyz
   'x, y, z'

loop_
   _atom_site_label
   _atom_site_occupancy
   _atom_site_fract_x
   _atom_site_fract_y
   _atom_site_fract_z
   _atom_site_adp_type
   _atom_site_U_iso_or_equiv
   _atom_site_type_symbol
   Ni1        1.0     0.215993     0.270938     0.213904    Uiso  ? Ni
   Ni2        1.0     0.444301     0.270503     0.213583    Uiso  ? Ni
   Ni3        1.0     0.672745     0.271127     0.214201    Uiso  ? Ni
   Ni4        1.0     0.329778     0.499801     0.100404    Uiso  ? Ni
   Ni5        1.0     0.215305     0.500012     0.213317    Uiso  ? Ni
   Ni6        1.0     0.329850     0.384868     0.213238    Uiso  ? Ni
   Ni7        1.0     0.444396     0.385142     0.100404    Uiso  ? Ni
   Ni8        1.0     0.558842     0.499735     0.100696    Uiso  ? Ni
   Ni9        1.0     0.444032     0.499749     0.211657    Uiso  ? Ni
   Ni10       1.0     0.559004     0.384570     0.213459    Uiso  ? Ni
   Ni11       1.0     0.673622     0.499668     0.213435    Uiso  ? Ni
   Ni12       1.0     0.215868     0.728256     0.214153    Uiso  ? Ni
   Ni13       1.0     0.329533     0.614576     0.213746    Uiso  ? Ni
   Ni14       1.0     0.444283     0.614326     0.100543    Uiso  ? Ni
   Ni15       1.0     0.444213     0.728864     0.213706    Uiso  ? Ni
   Ni16       1.0     0.559017     0.614835     0.213530    Uiso  ? Ni
   Ni17       1.0     0.672845     0.728317     0.214118    Uiso  ? Ni
   Ni18       1.0     0.329783     0.269998     0.327427    Uiso  ? Ni
   Ni19       1.0     0.215565     0.268865     0.442369    Uiso  ? Ni
   Ni20       1.0     0.330141     0.156808     0.442432    Uiso  ? Ni
   Ni21       1.0     0.444277     0.157173     0.327972    Uiso  ? Ni
   Ni22       1.0     0.558979     0.269711     0.327121    Uiso  ? Ni
   Ni23       1.0     0.444008     0.268923     0.441790    Uiso  ? Ni
   Ni24       1.0     0.558647     0.156908     0.442015    Uiso  ? Ni
   Ni25       1.0     0.786725     0.271123     0.328199    Uiso  ? Ni
   Ni26       1.0     0.673619     0.270089     0.441914    Uiso  ? Ni
   Ni27       1.0     0.101749     0.499972     0.327759    Uiso  ? Ni
   Ni28       1.0     0.100000     0.385283     0.442469    Uiso  ? Ni
   Ni29       1.0     0.215240     0.384797     0.325946    Uiso  ? Ni
   Ni30       1.0     0.327297     0.499699     0.326356    Uiso  ? Ni
   Ni31       1.0     0.214441     0.501402     0.441746    Uiso  ? Ni
   Ni32       1.0     0.330433     0.383325     0.441437    Uiso  ? Ni
   Ni33       1.0     0.444028     0.382448     0.326313    Uiso  ? Ni
   Ni34       1.0     0.560947     0.499644     0.324909    Uiso  ? Ni
   Ni35       1.0     0.442176     0.499338     0.440988    Uiso  ? Ni
   Ni36       1.0     0.559362     0.381929     0.439705    Uiso  ? Ni
   Ni37       1.0     0.673930     0.384469     0.327210    Uiso  ? Ni
   Ni38       1.0     0.787283     0.499635     0.327473    Uiso  ? Ni
   Ni39       1.0     0.676542     0.499578     0.441043    Uiso  ? Ni
   Ni40       1.0     0.787630     0.384755     0.441862    Uiso  ? Ni
   Ni41       1.0     0.899925     0.499666     0.442286    Uiso  ? Ni
   Ni42       1.0     0.101274     0.614468     0.442015    Uiso  ? Ni
   Ni43       1.0     0.214763     0.614939     0.327056    Uiso  ? Ni
   Ni44       1.0     0.329357     0.729389     0.327312    Uiso  ? Ni
   Ni45       1.0     0.215015     0.728874     0.441878    Uiso  ? Ni
   Ni46       1.0     0.328243     0.615844     0.439491    Uiso  ? Ni
   Ni47       1.0     0.443948     0.616865     0.326445    Uiso  ? Ni
   Ni48       1.0     0.559134     0.729794     0.326918    Uiso  ? Ni
   Ni49       1.0     0.443974     0.730785     0.440954    Uiso  ? Ni
   Ni50       1.0     0.560247     0.617423     0.439030    Uiso  ? Ni
   Ni51       1.0     0.674224     0.614880     0.326959    Uiso  ? Ni
   Ni52       1.0     0.786879     0.728325     0.328069    Uiso  ? Ni
   Ni53       1.0     0.673961     0.729470     0.441668    Uiso  ? Ni
   Ni54       1.0     0.787715     0.614558     0.441733    Uiso  ? Ni
   Ni55       1.0     0.329619     0.842725     0.441820    Uiso  ? Ni
   Ni56       1.0     0.444206     0.842406     0.327728    Uiso  ? Ni
   Ni57       1.0     0.558831     0.842714     0.441692    Uiso  ? Ni
   Ni58       1.0     0.329104     0.269546     0.557256    Uiso  ? Ni
   Ni59       1.0     0.215484     0.270397     0.671663    Uiso  ? Ni
   Ni60       1.0     0.443874     0.156990     0.556944    Uiso  ? Ni
   Ni61       1.0     0.559039     0.267747     0.556847    Uiso  ? Ni
   Ni62       1.0     0.443564     0.269641     0.672199    Uiso  ? Ni
   Ni63       1.0     0.558484     0.157095     0.671463    Uiso  ? Ni
   Ni64       1.0     0.673112     0.156943     0.556696    Uiso  ? Ni
   Ni65       1.0     0.787354     0.270523     0.556639    Uiso  ? Ni
   Ni66       1.0     0.673630     0.270134     0.671491    Uiso  ? Ni
   Ni67       1.0     0.101550     0.499555     0.557177    Uiso  ? Ni
   Ni68       1.0     0.214733     0.384026     0.558879    Uiso  ? Ni
   Ni69       1.0     0.326168     0.497594     0.557279    Uiso  ? Ni
   Ni70       1.0     0.214484     0.499207     0.672449    Uiso  ? Ni
   Ni71       1.0     0.328491     0.383429     0.672804    Uiso  ? Ni
   Ni72       1.0     0.442108     0.381117     0.557414    Uiso  ? Ni
   Ni73       1.0     0.561683     0.499121     0.556874    Uiso  ? Ni
   Ni74       1.0     0.441777     0.497357     0.674487    Uiso  ? Ni
   Ni75       1.0     0.559364     0.381878     0.674126    Uiso  ? Ni
   Ni76       1.0     0.676218     0.383616     0.556713    Uiso  ? Ni
   Ni77       1.0     0.788087     0.499595     0.556680    Uiso  ? Ni
   Ni78       1.0     0.676494     0.499295     0.672553    Uiso  ? Ni
   Ni79       1.0     0.787675     0.384716     0.671440    Uiso  ? Ni
   Ni80       1.0     0.900000     0.385354     0.556607    Uiso  ? Ni
   Ni81       1.0     0.899958     0.499674     0.670909    Uiso  ? Ni
   Ni82       1.0     0.212770     0.614946     0.556876    Uiso  ? Ni
   Ni83       1.0     0.328572     0.731513     0.556422    Uiso  ? Ni
   Ni84       1.0     0.214914     0.729092     0.671464    Uiso  ? Ni
   Ni85       1.0     0.326829     0.614847     0.673721    Uiso  ? Ni
   Ni86       1.0     0.443535     0.617489     0.555218    Uiso  ? Ni
   Ni87       1.0     0.559782     0.732055     0.556336    Uiso  ? Ni
   Ni88       1.0     0.443876     0.731674     0.672171    Uiso  ? Ni
   Ni89       1.0     0.561250     0.616934     0.674194    Uiso  ? Ni
   Ni90       1.0     0.676549     0.615557     0.556413    Uiso  ? Ni
   Ni91       1.0     0.787429     0.728902     0.556566    Uiso  ? Ni
   Ni92       1.0     0.674084     0.729550     0.671475    Uiso  ? Ni
   Ni93       1.0     0.787523     0.614488     0.671447    Uiso  ? Ni
   Ni94       1.0     0.899932     0.613988     0.556611    Uiso  ? Ni
   Ni95       1.0     0.444161     0.843192     0.556346    Uiso  ? Ni
   Ni96       1.0     0.559001     0.842877     0.671402    Uiso  ? Ni
   Ni97       1.0     0.673416     0.842757     0.556536    Uiso  ? Ni
   Ni98       1.0     0.329667     0.270685     0.785599    Uiso  ? Ni
   Ni99       1.0     0.558586     0.270095     0.786183    Uiso  ? Ni
   Ni100      1.0     0.786683     0.271208     0.785034    Uiso  ? Ni
   Ni101      1.0     0.328519     0.498918     0.786896    Uiso  ? Ni
   Ni102      1.0     0.443549     0.383842     0.786931    Uiso  ? Ni
   Ni103      1.0     0.559259     0.499183     0.788591    Uiso  ? Ni
   Ni104      1.0     0.443765     0.499149     0.899529    Uiso  ? Ni
   Ni105      1.0     0.558538     0.384748     0.899290    Uiso  ? Ni
   Ni106      1.0     0.673655     0.384685     0.786106    Uiso  ? Ni
   Ni107      1.0     0.787410     0.499571     0.785754    Uiso  ? Ni
   Ni108      1.0     0.673214     0.499519     0.899399    Uiso  ? Ni
   Ni109      1.0     0.329397     0.729013     0.786022    Uiso  ? Ni
   Ni110      1.0     0.443770     0.614683     0.788541    Uiso  ? Ni
   Ni111      1.0     0.558978     0.729517     0.786482    Uiso  ? Ni
   Ni112      1.0     0.558901     0.614308     0.899596    Uiso  ? Ni
   Ni113      1.0     0.674071     0.614441     0.786471    Uiso  ? Ni
   Ni114      1.0     0.786764     0.728193     0.785105    Uiso  ? Ni
   H1         1.0     0.442578     0.498204     0.556951    Uiso  ? H
   H2         1.0     0.215575     0.385577     0.442588    Uiso  ? H
   H3         1.0     0.443359     0.499679     0.326197    Uiso  ? H
   H4         1.0     0.560401     0.499680     0.440354    Uiso  ? H
   H5         1.0     0.559591     0.382258     0.556808    Uiso  ? H
   H6         1.0     0.560072     0.499002     0.673859    Uiso  ? H
   H7         1.0     0.327407     0.614789     0.555849    Uiso  ? H
   H8         1.0     0.560589     0.616620     0.556226    Uiso  ? H
   H9         1.0     0.443579     0.615451     0.673249    Uiso  ? H
