
#======================================================================
# CRYSTAL DATA
#----------------------------------------------------------------------
data_VESTA_phase_1

_chemical_name_common                  ' Ni H'
_cell_length_a                         15.485066
_cell_length_b                         15.485066
_cell_length_c                         15.485066
_cell_angle_alpha                      90.000000
_cell_angle_beta                       90.000000
_cell_angle_gamma                      90.000000
_cell_volume                           1.000000
_space_group_name_H-M_alt              'P 1'
_space_group_IT_number                 1

loop_
_space_group_symop_operation_xyz
   'x, y, z'

loop_
   _atom_site_label
   _atom_site_occupancy
   _atom_site_fract_x
   _atom_site_fract_y
   _atom_site_fract_z
   _atom_site_adp_type
   _atom_site_U_iso_or_equiv
   _atom_site_type_symbol
   Ni1        1.0     0.216093     0.271105     0.213670    Uiso  ? Ni
   Ni2        1.0     0.444424     0.270674     0.213411    Uiso  ? Ni
   Ni3        1.0     0.672881     0.271296     0.213974    Uiso  ? Ni
   Ni4        1.0     0.329908     0.499965     0.100287    Uiso  ? Ni
   Ni5        1.0     0.215412     0.500209     0.213098    Uiso  ? Ni
   Ni6        1.0     0.329974     0.385048     0.213077    Uiso  ? Ni
   Ni7        1.0     0.444515     0.385314     0.100298    Uiso  ? Ni
   Ni8        1.0     0.558946     0.499896     0.100581    Uiso  ? Ni
   Ni9        1.0     0.444148     0.499924     0.211461    Uiso  ? Ni
   Ni10       1.0     0.559125     0.384743     0.213294    Uiso  ? Ni
   Ni11       1.0     0.673738     0.499853     0.213231    Uiso  ? Ni
   Ni12       1.0     0.216002     0.728412     0.213952    Uiso  ? Ni
   Ni13       1.0     0.329647     0.614767     0.213536    Uiso  ? Ni
   Ni14       1.0     0.444400     0.614478     0.100419    Uiso  ? Ni
   Ni15       1.0     0.444330     0.729036     0.213500    Uiso  ? Ni
   Ni16       1.0     0.559129     0.615013     0.213334    Uiso  ? Ni
   Ni17       1.0     0.672934     0.728456     0.213933    Uiso  ? Ni
   Ni18       1.0     0.329827     0.270077     0.327047    Uiso  ? Ni
   Ni19       1.0     0.215517     0.268959     0.441923    Uiso  ? Ni
   Ni20       1.0     0.330142     0.156811     0.441966    Uiso  ? Ni
   Ni21       1.0     0.444401     0.157177     0.327559    Uiso  ? Ni
   Ni22       1.0     0.559179     0.269799     0.326768    Uiso  ? Ni
   Ni23       1.0     0.444144     0.268688     0.440972    Uiso  ? Ni
   Ni24       1.0     0.558895     0.156903     0.441554    Uiso  ? Ni
   Ni25       1.0     0.786881     0.271277     0.327898    Uiso  ? Ni
   Ni26       1.0     0.673913     0.270164     0.441480    Uiso  ? Ni
   Ni27       1.0     0.101826     0.500185     0.327460    Uiso  ? Ni
   Ni28       1.0     0.100000     0.385472     0.442075    Uiso  ? Ni
   Ni29       1.0     0.215223     0.384985     0.325548    Uiso  ? Ni
   Ni30       1.0     0.327353     0.499963     0.326034    Uiso  ? Ni
   Ni31       1.0     0.214383     0.501670     0.441307    Uiso  ? Ni
   Ni32       1.0     0.330179     0.383508     0.440596    Uiso  ? Ni
   Ni33       1.0     0.444165     0.382623     0.326089    Uiso  ? Ni
   Ni34       1.0     0.561104     0.499867     0.324614    Uiso  ? Ni
   Ni35       1.0     0.442294     0.499889     0.440340    Uiso  ? Ni
   Ni36       1.0     0.559855     0.382091     0.439017    Uiso  ? Ni
   Ni37       1.0     0.674175     0.384648     0.326846    Uiso  ? Ni
   Ni38       1.0     0.787415     0.499838     0.327198    Uiso  ? Ni
   Ni39       1.0     0.676765     0.499813     0.440662    Uiso  ? Ni
   Ni40       1.0     0.787833     0.384936     0.441475    Uiso  ? Ni
   Ni41       1.0     0.899983     0.499855     0.442028    Uiso  ? Ni
   Ni42       1.0     0.101361     0.614701     0.441719    Uiso  ? Ni
   Ni43       1.0     0.214850     0.615160     0.326779    Uiso  ? Ni
   Ni44       1.0     0.329456     0.729582     0.327047    Uiso  ? Ni
   Ni45       1.0     0.215098     0.729088     0.441593    Uiso  ? Ni
   Ni46       1.0     0.328268     0.616158     0.439149    Uiso  ? Ni
   Ni47       1.0     0.444057     0.617137     0.326135    Uiso  ? Ni
   Ni48       1.0     0.559257     0.729970     0.326672    Uiso  ? Ni
   Ni49       1.0     0.444086     0.731046     0.440591    Uiso  ? Ni
   Ni50       1.0     0.560413     0.617679     0.438715    Uiso  ? Ni
   Ni51       1.0     0.674343     0.615071     0.326710    Uiso  ? Ni
   Ni52       1.0     0.786954     0.728472     0.327851    Uiso  ? Ni
   Ni53       1.0     0.674083     0.729651     0.441406    Uiso  ? Ni
   Ni54       1.0     0.787828     0.614760     0.441463    Uiso  ? Ni
   Ni55       1.0     0.329726     0.842865     0.441557    Uiso  ? Ni
   Ni56       1.0     0.444322     0.842550     0.327479    Uiso  ? Ni
   Ni57       1.0     0.558948     0.842845     0.441439    Uiso  ? Ni
   Ni58       1.0     0.328847     0.269356     0.556548    Uiso  ? Ni
   Ni59       1.0     0.215146     0.270237     0.671359    Uiso  ? Ni
   Ni60       1.0     0.444026     0.156699     0.556209    Uiso  ? Ni
   Ni61       1.0     0.559599     0.267609     0.556136    Uiso  ? Ni
   Ni62       1.0     0.443750     0.267885     0.671776    Uiso  ? Ni
   Ni63       1.0     0.559039     0.156811     0.671146    Uiso  ? Ni
   Ni64       1.0     0.673425     0.156939     0.556305    Uiso  ? Ni
   Ni65       1.0     0.787553     0.270617     0.556296    Uiso  ? Ni
   Ni66       1.0     0.674252     0.269920     0.671208    Uiso  ? Ni
   Ni67       1.0     0.101592     0.499839     0.556838    Uiso  ? Ni
   Ni68       1.0     0.214376     0.384242     0.558221    Uiso  ? Ni
   Ni69       1.0     0.325945     0.498159     0.556532    Uiso  ? Ni
   Ni70       1.0     0.214176     0.499797     0.672164    Uiso  ? Ni
   Ni71       1.0     0.326828     0.383725     0.672481    Uiso  ? Ni
   Ni72       1.0     0.442297     0.381275     0.555085    Uiso  ? Ni
   Ni73       1.0     0.562189     0.499609     0.556297    Uiso  ? Ni
   Ni74       1.0     0.441884     0.499622     0.674224    Uiso  ? Ni
   Ni75       1.0     0.561394     0.382116     0.673812    Uiso  ? Ni
   Ni76       1.0     0.676742     0.383779     0.556118    Uiso  ? Ni
   Ni77       1.0     0.788231     0.499841     0.556364    Uiso  ? Ni
   Ni78       1.0     0.676990     0.499821     0.672313    Uiso  ? Ni
   Ni79       1.0     0.787729     0.384900     0.671187    Uiso  ? Ni
   Ni80       1.0     0.900000     0.385537     0.556353    Uiso  ? Ni
   Ni81       1.0     0.899958     0.499857     0.670654    Uiso  ? Ni
   Ni82       1.0     0.212761     0.615284     0.556528    Uiso  ? Ni
   Ni83       1.0     0.328613     0.731776     0.556117    Uiso  ? Ni
   Ni84       1.0     0.214875     0.729415     0.671210    Uiso  ? Ni
   Ni85       1.0     0.326585     0.615571     0.673474    Uiso  ? Ni
   Ni86       1.0     0.443645     0.618115     0.554668    Uiso  ? Ni
   Ni87       1.0     0.559950     0.732292     0.556047    Uiso  ? Ni
   Ni88       1.0     0.443989     0.731972     0.671937    Uiso  ? Ni
   Ni89       1.0     0.561662     0.617536     0.673945    Uiso  ? Ni
   Ni90       1.0     0.676760     0.615859     0.556114    Uiso  ? Ni
   Ni91       1.0     0.787556     0.729103     0.556294    Uiso  ? Ni
   Ni92       1.0     0.674319     0.729836     0.671226    Uiso  ? Ni
   Ni93       1.0     0.787719     0.614799     0.671193    Uiso  ? Ni
   Ni94       1.0     0.899989     0.614175     0.556351    Uiso  ? Ni
   Ni95       1.0     0.444273     0.843301     0.556078    Uiso  ? Ni
   Ni96       1.0     0.559137     0.842998     0.671157    Uiso  ? Ni
   Ni97       1.0     0.673536     0.842896     0.556278    Uiso  ? Ni
   Ni98       1.0     0.329461     0.270550     0.785653    Uiso  ? Ni
   Ni99       1.0     0.559086     0.269940     0.786256    Uiso  ? Ni
   Ni100      1.0     0.786891     0.271308     0.784859    Uiso  ? Ni
   Ni101      1.0     0.328222     0.499562     0.787052    Uiso  ? Ni
   Ni102      1.0     0.443724     0.384186     0.788495    Uiso  ? Ni
   Ni103      1.0     0.559818     0.499814     0.788649    Uiso  ? Ni
   Ni104      1.0     0.443912     0.499800     0.899713    Uiso  ? Ni
   Ni105      1.0     0.559071     0.384989     0.899473    Uiso  ? Ni
   Ni106      1.0     0.674271     0.384894     0.786238    Uiso  ? Ni
   Ni107      1.0     0.787598     0.499843     0.785581    Uiso  ? Ni
   Ni108      1.0     0.673518     0.499836     0.899321    Uiso  ? Ni
   Ni109      1.0     0.329427     0.729323     0.785866    Uiso  ? Ni
   Ni110      1.0     0.443890     0.615414     0.788635    Uiso  ? Ni
   Ni111      1.0     0.559167     0.729799     0.786311    Uiso  ? Ni
   Ni112      1.0     0.559127     0.614690     0.899507    Uiso  ? Ni
   Ni113      1.0     0.674340     0.614797     0.786305    Uiso  ? Ni
   Ni114      1.0     0.786912     0.728419     0.784876    Uiso  ? Ni
   H1         1.0     0.442792     0.499120     0.556020    Uiso  ? H
   H2         1.0     0.215484     0.385753     0.442106    Uiso  ? H
   H3         1.0     0.443474     0.499872     0.325759    Uiso  ? H
   H4         1.0     0.560554     0.499899     0.439934    Uiso  ? H
   H5         1.0     0.560361     0.382521     0.555957    Uiso  ? H
   H6         1.0     0.443185     0.383140     0.672620    Uiso  ? H
   H7         1.0     0.560725     0.499809     0.673518    Uiso  ? H
   H8         1.0     0.327484     0.615125     0.555647    Uiso  ? H
   H9         1.0     0.560743     0.616961     0.555934    Uiso  ? H
   H10        1.0     0.443732     0.616462     0.672960    Uiso  ? H
