
#======================================================================
# CRYSTAL DATA
#----------------------------------------------------------------------
data_VESTA_phase_1

_chemical_name_common                  ' Ni H'
_cell_length_a                         15.520082
_cell_length_b                         15.520082
_cell_length_c                         15.520082
_cell_angle_alpha                      90.000000
_cell_angle_beta                       90.000000
_cell_angle_gamma                      90.000000
_cell_volume                           1.000000
_space_group_name_H-M_alt              'P 1'
_space_group_IT_number                 1

loop_
_space_group_symop_operation_xyz
   'x, y, z'

loop_
   _atom_site_label
   _atom_site_occupancy
   _atom_site_fract_x
   _atom_site_fract_y
   _atom_site_fract_z
   _atom_site_adp_type
   _atom_site_U_iso_or_equiv
   _atom_site_type_symbol
   Ni1        1.0     0.217398     0.270485     0.214069    Uiso  ? Ni
   Ni2        1.0     0.446048     0.270251     0.213889    Uiso  ? Ni
   Ni3        1.0     0.673832     0.271416     0.214981    Uiso  ? Ni
   Ni4        1.0     0.331741     0.499365     0.100490    Uiso  ? Ni
   Ni5        1.0     0.216513     0.499330     0.211468    Uiso  ? Ni
   Ni6        1.0     0.331603     0.383914     0.212870    Uiso  ? Ni
   Ni7        1.0     0.446086     0.384978     0.101144    Uiso  ? Ni
   Ni8        1.0     0.560465     0.499690     0.101271    Uiso  ? Ni
   Ni9        1.0     0.446587     0.499558     0.211357    Uiso  ? Ni
   Ni10       1.0     0.560899     0.384539     0.213668    Uiso  ? Ni
   Ni11       1.0     0.674750     0.499691     0.214082    Uiso  ? Ni
   Ni12       1.0     0.217188     0.729232     0.213875    Uiso  ? Ni
   Ni13       1.0     0.331832     0.614983     0.211682    Uiso  ? Ni
   Ni14       1.0     0.446400     0.614392     0.100790    Uiso  ? Ni
   Ni15       1.0     0.446368     0.729361     0.213803    Uiso  ? Ni
   Ni16       1.0     0.561064     0.614827     0.213686    Uiso  ? Ni
   Ni17       1.0     0.673864     0.728136     0.214952    Uiso  ? Ni
   Ni18       1.0     0.331501     0.269391     0.327629    Uiso  ? Ni
   Ni19       1.0     0.216454     0.268164     0.443178    Uiso  ? Ni
   Ni20       1.0     0.331412     0.156925     0.442885    Uiso  ? Ni
   Ni21       1.0     0.445934     0.157253     0.328306    Uiso  ? Ni
   Ni22       1.0     0.560920     0.269778     0.327834    Uiso  ? Ni
   Ni23       1.0     0.446226     0.267233     0.442357    Uiso  ? Ni
   Ni24       1.0     0.560465     0.157282     0.442822    Uiso  ? Ni
   Ni25       1.0     0.787285     0.271534     0.328961    Uiso  ? Ni
   Ni26       1.0     0.674955     0.270250     0.442690    Uiso  ? Ni
   Ni27       1.0     0.100342     0.499388     0.327997    Uiso  ? Ni
   Ni28       1.0     0.100548     0.384325     0.443354    Uiso  ? Ni
   Ni29       1.0     0.216056     0.382177     0.326107    Uiso  ? Ni
   Ni30       1.0     0.331078     0.497784     0.326180    Uiso  ? Ni
   Ni31       1.0     0.214555     0.499484     0.444327    Uiso  ? Ni
   Ni32       1.0     0.330806     0.381869     0.442346    Uiso  ? Ni
   Ni33       1.0     0.446780     0.381892     0.325492    Uiso  ? Ni
   Ni34       1.0     0.563233     0.499476     0.325489    Uiso  ? Ni
   Ni35       1.0     0.445630     0.500930     0.441915    Uiso  ? Ni
   Ni36       1.0     0.563270     0.381876     0.441724    Uiso  ? Ni
   Ni37       1.0     0.675198     0.384541     0.327850    Uiso  ? Ni
   Ni38       1.0     0.787639     0.499735     0.328269    Uiso  ? Ni
   Ni39       1.0     0.677713     0.499629     0.441948    Uiso  ? Ni
   Ni40       1.0     0.787743     0.384974     0.442679    Uiso  ? Ni
   Ni41       1.0     0.899776     0.499704     0.442916    Uiso  ? Ni
   Ni42       1.0     0.100000     0.615008     0.443478    Uiso  ? Ni
   Ni43       1.0     0.214643     0.616755     0.326097    Uiso  ? Ni
   Ni44       1.0     0.331791     0.731848     0.327654    Uiso  ? Ni
   Ni45       1.0     0.216232     0.731577     0.443323    Uiso  ? Ni
   Ni46       1.0     0.332146     0.617339     0.442546    Uiso  ? Ni
   Ni47       1.0     0.448370     0.617556     0.326318    Uiso  ? Ni
   Ni48       1.0     0.561093     0.730055     0.327727    Uiso  ? Ni
   Ni49       1.0     0.446636     0.731283     0.442389    Uiso  ? Ni
   Ni50       1.0     0.562168     0.617586     0.440602    Uiso  ? Ni
   Ni51       1.0     0.675032     0.614854     0.327803    Uiso  ? Ni
   Ni52       1.0     0.787248     0.727982     0.328934    Uiso  ? Ni
   Ni53       1.0     0.674886     0.729316     0.442553    Uiso  ? Ni
   Ni54       1.0     0.788003     0.614469     0.442480    Uiso  ? Ni
   Ni55       1.0     0.331751     0.843075     0.443002    Uiso  ? Ni
   Ni56       1.0     0.446342     0.842524     0.328501    Uiso  ? Ni
   Ni57       1.0     0.560330     0.842486     0.442622    Uiso  ? Ni
   Ni58       1.0     0.330536     0.268852     0.557728    Uiso  ? Ni
   Ni59       1.0     0.216288     0.269831     0.672225    Uiso  ? Ni
   Ni60       1.0     0.445821     0.157037     0.557286    Uiso  ? Ni
   Ni61       1.0     0.561333     0.269242     0.557238    Uiso  ? Ni
   Ni62       1.0     0.445780     0.267765     0.672415    Uiso  ? Ni
   Ni63       1.0     0.560270     0.157468     0.671353    Uiso  ? Ni
   Ni64       1.0     0.674008     0.157669     0.557052    Uiso  ? Ni
   Ni65       1.0     0.787597     0.271219     0.557012    Uiso  ? Ni
   Ni66       1.0     0.674806     0.270436     0.671443    Uiso  ? Ni
   Ni67       1.0     0.101553     0.499410     0.558453    Uiso  ? Ni
   Ni68       1.0     0.214999     0.383133     0.559862    Uiso  ? Ni
   Ni69       1.0     0.328412     0.497866     0.557380    Uiso  ? Ni
   Ni70       1.0     0.213841     0.499617     0.673253    Uiso  ? Ni
   Ni71       1.0     0.328788     0.382107     0.673372    Uiso  ? Ni
   Ni72       1.0     0.446120     0.381124     0.557779    Uiso  ? Ni
   Ni73       1.0     0.563874     0.498170     0.557481    Uiso  ? Ni
   Ni74       1.0     0.445618     0.501251     0.675088    Uiso  ? Ni
   Ni75       1.0     0.562971     0.382205     0.672920    Uiso  ? Ni
   Ni76       1.0     0.676199     0.383758     0.557151    Uiso  ? Ni
   Ni77       1.0     0.788211     0.499453     0.557118    Uiso  ? Ni
   Ni78       1.0     0.677314     0.499693     0.672532    Uiso  ? Ni
   Ni79       1.0     0.787688     0.385077     0.671343    Uiso  ? Ni
   Ni80       1.0     0.900000     0.385684     0.556946    Uiso  ? Ni
   Ni81       1.0     0.899913     0.499698     0.670944    Uiso  ? Ni
   Ni82       1.0     0.214028     0.615826     0.560183    Uiso  ? Ni
   Ni83       1.0     0.330953     0.732277     0.558146    Uiso  ? Ni
   Ni84       1.0     0.216392     0.729699     0.672519    Uiso  ? Ni
   Ni85       1.0     0.330179     0.617276     0.674828    Uiso  ? Ni
   Ni86       1.0     0.446330     0.618379     0.558360    Uiso  ? Ni
   Ni87       1.0     0.561060     0.731854     0.557434    Uiso  ? Ni
   Ni88       1.0     0.445818     0.730392     0.672995    Uiso  ? Ni
   Ni89       1.0     0.561576     0.617321     0.674564    Uiso  ? Ni
   Ni90       1.0     0.677116     0.615296     0.557259    Uiso  ? Ni
   Ni91       1.0     0.787777     0.728490     0.557053    Uiso  ? Ni
   Ni92       1.0     0.674710     0.729095     0.671744    Uiso  ? Ni
   Ni93       1.0     0.788039     0.614393     0.671581    Uiso  ? Ni
   Ni94       1.0     0.899883     0.613734     0.556945    Uiso  ? Ni
   Ni95       1.0     0.445914     0.842704     0.557519    Uiso  ? Ni
   Ni96       1.0     0.559986     0.842174     0.671817    Uiso  ? Ni
   Ni97       1.0     0.674240     0.842250     0.557143    Uiso  ? Ni
   Ni98       1.0     0.331018     0.270360     0.786204    Uiso  ? Ni
   Ni99       1.0     0.560224     0.270500     0.786073    Uiso  ? Ni
   Ni100      1.0     0.787120     0.271767     0.784864    Uiso  ? Ni
   Ni101      1.0     0.330173     0.499822     0.788793    Uiso  ? Ni
   Ni102      1.0     0.445683     0.384295     0.788457    Uiso  ? Ni
   Ni103      1.0     0.560999     0.499823     0.788666    Uiso  ? Ni
   Ni104      1.0     0.445546     0.500089     0.899510    Uiso  ? Ni
   Ni105      1.0     0.560086     0.385181     0.899399    Uiso  ? Ni
   Ni106      1.0     0.674674     0.385078     0.786056    Uiso  ? Ni
   Ni107      1.0     0.787761     0.499744     0.785558    Uiso  ? Ni
   Ni108      1.0     0.674106     0.499795     0.899133    Uiso  ? Ni
   Ni109      1.0     0.331218     0.729220     0.786335    Uiso  ? Ni
   Ni110      1.0     0.445692     0.615696     0.787571    Uiso  ? Ni
   Ni111      1.0     0.560046     0.729137     0.786290    Uiso  ? Ni
   Ni112      1.0     0.559892     0.614446     0.899065    Uiso  ? Ni
   Ni113      1.0     0.674678     0.614466     0.786148    Uiso  ? Ni
   Ni114      1.0     0.787179     0.727803     0.784931    Uiso  ? Ni
   H1         1.0     0.445439     0.499723     0.557438    Uiso  ? H
   H2         1.0     0.215593     0.499041     0.327040    Uiso  ? H
   H3         1.0     0.216336     0.383945     0.443782    Uiso  ? H
   H4         1.0     0.446841     0.499689     0.325942    Uiso  ? H
   H5         1.0     0.446202     0.383063     0.441913    Uiso  ? H
   H6         1.0     0.562998     0.499742     0.441350    Uiso  ? H
   H7         1.0     0.332022     0.615597     0.327141    Uiso  ? H
   H8         1.0     0.215171     0.615581     0.443522    Uiso  ? H
   H9         1.0     0.328892     0.499540     0.673819    Uiso  ? H
   H10        1.0     0.445852     0.383254     0.673293    Uiso  ? H
   H11        1.0     0.562162     0.499763     0.673795    Uiso  ? H
   H12        1.0     0.330625     0.615756     0.558367    Uiso  ? H
   H13        1.0     0.561793     0.616250     0.557477    Uiso  ? H
