
#======================================================================
# CRYSTAL DATA
#----------------------------------------------------------------------
data_VESTA_phase_1

_chemical_name_common                  ' Ni H'
_cell_length_a                         15.511389
_cell_length_b                         15.511389
_cell_length_c                         15.511389
_cell_angle_alpha                      90.000000
_cell_angle_beta                       90.000000
_cell_angle_gamma                      90.000000
_cell_volume                           1.000000
_space_group_name_H-M_alt              'P 1'
_space_group_IT_number                 1

loop_
_space_group_symop_operation_xyz
   'x, y, z'

loop_
   _atom_site_label
   _atom_site_occupancy
   _atom_site_fract_x
   _atom_site_fract_y
   _atom_site_fract_z
   _atom_site_adp_type
   _atom_site_U_iso_or_equiv
   _atom_site_type_symbol
   Ni1        1.0     0.216887     0.271235     0.214025    Uiso  ? Ni
   Ni2        1.0     0.445560     0.270859     0.213704    Uiso  ? Ni
   Ni3        1.0     0.673668     0.272037     0.214812    Uiso  ? Ni
   Ni4        1.0     0.331153     0.500654     0.100849    Uiso  ? Ni
   Ni5        1.0     0.216296     0.501025     0.211962    Uiso  ? Ni
   Ni6        1.0     0.330989     0.385321     0.213184    Uiso  ? Ni
   Ni7        1.0     0.445551     0.385857     0.101246    Uiso  ? Ni
   Ni8        1.0     0.559965     0.500604     0.101344    Uiso  ? Ni
   Ni9        1.0     0.445716     0.500736     0.211324    Uiso  ? Ni
   Ni10       1.0     0.560548     0.385396     0.213585    Uiso  ? Ni
   Ni11       1.0     0.674510     0.500618     0.213972    Uiso  ? Ni
   Ni12       1.0     0.216940     0.729575     0.214493    Uiso  ? Ni
   Ni13       1.0     0.330661     0.616163     0.213341    Uiso  ? Ni
   Ni14       1.0     0.445436     0.615331     0.101252    Uiso  ? Ni
   Ni15       1.0     0.445323     0.730099     0.213938    Uiso  ? Ni
   Ni16       1.0     0.560285     0.615792     0.213810    Uiso  ? Ni
   Ni17       1.0     0.673493     0.728965     0.214993    Uiso  ? Ni
   Ni18       1.0     0.330914     0.269761     0.327163    Uiso  ? Ni
   Ni19       1.0     0.215752     0.268537     0.442652    Uiso  ? Ni
   Ni20       1.0     0.330912     0.156985     0.442596    Uiso  ? Ni
   Ni21       1.0     0.445555     0.157546     0.328041    Uiso  ? Ni
   Ni22       1.0     0.560598     0.270234     0.327346    Uiso  ? Ni
   Ni23       1.0     0.445733     0.267587     0.441794    Uiso  ? Ni
   Ni24       1.0     0.560239     0.157444     0.442561    Uiso  ? Ni
   Ni25       1.0     0.787235     0.272147     0.328864    Uiso  ? Ni
   Ni26       1.0     0.675034     0.270690     0.442554    Uiso  ? Ni
   Ni27       1.0     0.100426     0.501133     0.328121    Uiso  ? Ni
   Ni28       1.0     0.100000     0.385608     0.442863    Uiso  ? Ni
   Ni29       1.0     0.215599     0.383724     0.325588    Uiso  ? Ni
   Ni30       1.0     0.330434     0.501496     0.325840    Uiso  ? Ni
   Ni31       1.0     0.214905     0.503046     0.442915    Uiso  ? Ni
   Ni32       1.0     0.329865     0.383628     0.440418    Uiso  ? Ni
   Ni33       1.0     0.445982     0.382929     0.324693    Uiso  ? Ni
   Ni34       1.0     0.562664     0.500692     0.325120    Uiso  ? Ni
   Ni35       1.0     0.444422     0.501546     0.442048    Uiso  ? Ni
   Ni36       1.0     0.563242     0.382893     0.440222    Uiso  ? Ni
   Ni37       1.0     0.675285     0.385424     0.327389    Uiso  ? Ni
   Ni38       1.0     0.787528     0.500600     0.328302    Uiso  ? Ni
   Ni39       1.0     0.677499     0.500684     0.442245    Uiso  ? Ni
   Ni40       1.0     0.787831     0.385805     0.442606    Uiso  ? Ni
   Ni41       1.0     0.899629     0.500557     0.443144    Uiso  ? Ni
   Ni42       1.0     0.102096     0.616420     0.443264    Uiso  ? Ni
   Ni43       1.0     0.215888     0.618207     0.327612    Uiso  ? Ni
   Ni44       1.0     0.330569     0.730689     0.328074    Uiso  ? Ni
   Ni45       1.0     0.216024     0.730596     0.443176    Uiso  ? Ni
   Ni46       1.0     0.328296     0.618443     0.442541    Uiso  ? Ni
   Ni47       1.0     0.445274     0.618505     0.325390    Uiso  ? Ni
   Ni48       1.0     0.560257     0.730655     0.327706    Uiso  ? Ni
   Ni49       1.0     0.444891     0.732727     0.442720    Uiso  ? Ni
   Ni50       1.0     0.562532     0.618446     0.440937    Uiso  ? Ni
   Ni51       1.0     0.675043     0.615742     0.327672    Uiso  ? Ni
   Ni52       1.0     0.787118     0.728870     0.329006    Uiso  ? Ni
   Ni53       1.0     0.674768     0.730252     0.442812    Uiso  ? Ni
   Ni54       1.0     0.787782     0.615355     0.442746    Uiso  ? Ni
   Ni55       1.0     0.330523     0.842970     0.443223    Uiso  ? Ni
   Ni56       1.0     0.445230     0.842959     0.328532    Uiso  ? Ni
   Ni57       1.0     0.559776     0.843096     0.442894    Uiso  ? Ni
   Ni58       1.0     0.330095     0.267903     0.558073    Uiso  ? Ni
   Ni59       1.0     0.216037     0.270625     0.672940    Uiso  ? Ni
   Ni60       1.0     0.445505     0.156903     0.557541    Uiso  ? Ni
   Ni61       1.0     0.561226     0.268302     0.557764    Uiso  ? Ni
   Ni62       1.0     0.445427     0.268615     0.673475    Uiso  ? Ni
   Ni63       1.0     0.559971     0.157523     0.672087    Uiso  ? Ni
   Ni64       1.0     0.674146     0.157787     0.557332    Uiso  ? Ni
   Ni65       1.0     0.787633     0.271719     0.557345    Uiso  ? Ni
   Ni66       1.0     0.674460     0.271342     0.672131    Uiso  ? Ni
   Ni67       1.0     0.100040     0.501503     0.558420    Uiso  ? Ni
   Ni68       1.0     0.213690     0.383769     0.559892    Uiso  ? Ni
   Ni69       1.0     0.329574     0.503354     0.559850    Uiso  ? Ni
   Ni70       1.0     0.215381     0.501769     0.675137    Uiso  ? Ni
   Ni71       1.0     0.328663     0.385358     0.675553    Uiso  ? Ni
   Ni72       1.0     0.445630     0.382471     0.558691    Uiso  ? Ni
   Ni73       1.0     0.563298     0.501210     0.560238    Uiso  ? Ni
   Ni74       1.0     0.445214     0.503065     0.676251    Uiso  ? Ni
   Ni75       1.0     0.562599     0.385182     0.675355    Uiso  ? Ni
   Ni76       1.0     0.677315     0.385145     0.557830    Uiso  ? Ni
   Ni77       1.0     0.788050     0.500665     0.557793    Uiso  ? Ni
   Ni78       1.0     0.675600     0.501050     0.673422    Uiso  ? Ni
   Ni79       1.0     0.787495     0.386280     0.672060    Uiso  ? Ni
   Ni80       1.0     0.899731     0.386488     0.557245    Uiso  ? Ni
   Ni81       1.0     0.900000     0.500563     0.671310    Uiso  ? Ni
   Ni82       1.0     0.215550     0.618751     0.558794    Uiso  ? Ni
   Ni83       1.0     0.329996     0.731065     0.558280    Uiso  ? Ni
   Ni84       1.0     0.216568     0.729930     0.672459    Uiso  ? Ni
   Ni85       1.0     0.329764     0.617176     0.674111    Uiso  ? Ni
   Ni86       1.0     0.443600     0.619591     0.560387    Uiso  ? Ni
   Ni87       1.0     0.560316     0.732276     0.558200    Uiso  ? Ni
   Ni88       1.0     0.444947     0.730555     0.673309    Uiso  ? Ni
   Ni89       1.0     0.560614     0.616699     0.675157    Uiso  ? Ni
   Ni90       1.0     0.676988     0.616239     0.558118    Uiso  ? Ni
   Ni91       1.0     0.787603     0.729330     0.557414    Uiso  ? Ni
   Ni92       1.0     0.673994     0.729481     0.672090    Uiso  ? Ni
   Ni93       1.0     0.787679     0.615038     0.672039    Uiso  ? Ni
   Ni94       1.0     0.899832     0.614632     0.557241    Uiso  ? Ni
   Ni95       1.0     0.444884     0.843097     0.557970    Uiso  ? Ni
   Ni96       1.0     0.559345     0.842892     0.672041    Uiso  ? Ni
   Ni97       1.0     0.673766     0.842894     0.557452    Uiso  ? Ni
   Ni98       1.0     0.330675     0.271311     0.786590    Uiso  ? Ni
   Ni99       1.0     0.559929     0.271366     0.786545    Uiso  ? Ni
   Ni100      1.0     0.786934     0.272526     0.785250    Uiso  ? Ni
   Ni101      1.0     0.330344     0.501523     0.787340    Uiso  ? Ni
   Ni102      1.0     0.445354     0.385947     0.788935    Uiso  ? Ni
   Ni103      1.0     0.560422     0.501143     0.787147    Uiso  ? Ni
   Ni104      1.0     0.445264     0.501202     0.899037    Uiso  ? Ni
   Ni105      1.0     0.559793     0.386503     0.899151    Uiso  ? Ni
   Ni106      1.0     0.674490     0.386303     0.786552    Uiso  ? Ni
   Ni107      1.0     0.787336     0.500697     0.785682    Uiso  ? Ni
   Ni108      1.0     0.673418     0.500768     0.898929    Uiso  ? Ni
   Ni109      1.0     0.330852     0.729465     0.786069    Uiso  ? Ni
   Ni110      1.0     0.444974     0.616235     0.786999    Uiso  ? Ni
   Ni111      1.0     0.559471     0.729544     0.786164    Uiso  ? Ni
   Ni112      1.0     0.559345     0.615003     0.898754    Uiso  ? Ni
   Ni113      1.0     0.674034     0.615142     0.786133    Uiso  ? Ni
   Ni114      1.0     0.786851     0.728559     0.785155    Uiso  ? Ni
   H1         1.0     0.445221     0.501745     0.559479    Uiso  ? H
   H2         1.0     0.215906     0.501517     0.327364    Uiso  ? H
   H3         1.0     0.214629     0.384976     0.442293    Uiso  ? H
   H4         1.0     0.445807     0.500693     0.325729    Uiso  ? H
   H5         1.0     0.445802     0.383623     0.441175    Uiso  ? H
   H6         1.0     0.562639     0.500785     0.441889    Uiso  ? H
   H7         1.0     0.444273     0.617869     0.442434    Uiso  ? H
   H8         1.0     0.329581     0.384743     0.558326    Uiso  ? H
   H9         1.0     0.214701     0.502191     0.559137    Uiso  ? H
   H10        1.0     0.562559     0.384140     0.558172    Uiso  ? H
   H11        1.0     0.445713     0.385513     0.675000    Uiso  ? H
   H12        1.0     0.561226     0.617389     0.558896    Uiso  ? H
