
#======================================================================
# CRYSTAL DATA
#----------------------------------------------------------------------
data_VESTA_phase_1

_chemical_name_common                  ' Ni H'
_cell_length_a                         15.494584
_cell_length_b                         15.494584
_cell_length_c                         15.494584
_cell_angle_alpha                      90.000000
_cell_angle_beta                       90.000000
_cell_angle_gamma                      90.000000
_cell_volume                           1.000000
_space_group_name_H-M_alt              'P 1'
_space_group_IT_number                 1

loop_
_space_group_symop_operation_xyz
   'x, y, z'

loop_
   _atom_site_label
   _atom_site_occupancy
   _atom_site_fract_x
   _atom_site_fract_y
   _atom_site_fract_z
   _atom_site_adp_type
   _atom_site_U_iso_or_equiv
   _atom_site_type_symbol
   Ni1        1.0     0.216594     0.272265     0.214260    Uiso  ? Ni
   Ni2        1.0     0.445002     0.271523     0.213605    Uiso  ? Ni
   Ni3        1.0     0.673318     0.272374     0.214351    Uiso  ? Ni
   Ni4        1.0     0.330489     0.500772     0.100920    Uiso  ? Ni
   Ni5        1.0     0.216132     0.500917     0.214070    Uiso  ? Ni
   Ni6        1.0     0.330034     0.386172     0.213775    Uiso  ? Ni
   Ni7        1.0     0.444963     0.386301     0.101064    Uiso  ? Ni
   Ni8        1.0     0.559427     0.500776     0.100880    Uiso  ? Ni
   Ni9        1.0     0.445039     0.501159     0.211880    Uiso  ? Ni
   Ni10       1.0     0.559997     0.386117     0.213698    Uiso  ? Ni
   Ni11       1.0     0.673863     0.500847     0.213886    Uiso  ? Ni
   Ni12       1.0     0.216799     0.729009     0.214427    Uiso  ? Ni
   Ni13       1.0     0.330357     0.615580     0.213881    Uiso  ? Ni
   Ni14       1.0     0.444976     0.615227     0.100795    Uiso  ? Ni
   Ni15       1.0     0.444956     0.729548     0.213924    Uiso  ? Ni
   Ni16       1.0     0.559589     0.615512     0.214044    Uiso  ? Ni
   Ni17       1.0     0.673117     0.728878     0.214536    Uiso  ? Ni
   Ni18       1.0     0.329983     0.270890     0.326993    Uiso  ? Ni
   Ni19       1.0     0.215495     0.270857     0.441336    Uiso  ? Ni
   Ni20       1.0     0.330259     0.157395     0.441643    Uiso  ? Ni
   Ni21       1.0     0.445032     0.157864     0.327497    Uiso  ? Ni
   Ni22       1.0     0.560091     0.271042     0.327127    Uiso  ? Ni
   Ni23       1.0     0.445122     0.268501     0.440923    Uiso  ? Ni
   Ni24       1.0     0.559818     0.157539     0.441796    Uiso  ? Ni
   Ni25       1.0     0.787043     0.272407     0.328265    Uiso  ? Ni
   Ni26       1.0     0.674416     0.271367     0.441795    Uiso  ? Ni
   Ni27       1.0     0.102368     0.500931     0.327518    Uiso  ? Ni
   Ni28       1.0     0.102054     0.386091     0.441384    Uiso  ? Ni
   Ni29       1.0     0.215246     0.385817     0.326744    Uiso  ? Ni
   Ni30       1.0     0.328374     0.501583     0.326504    Uiso  ? Ni
   Ni31       1.0     0.214630     0.501584     0.439435    Uiso  ? Ni
   Ni32       1.0     0.327798     0.384922     0.438961    Uiso  ? Ni
   Ni33       1.0     0.445102     0.384171     0.324941    Uiso  ? Ni
   Ni34       1.0     0.562132     0.501242     0.326423    Uiso  ? Ni
   Ni35       1.0     0.445488     0.503411     0.440586    Uiso  ? Ni
   Ni36       1.0     0.562628     0.385208     0.439316    Uiso  ? Ni
   Ni37       1.0     0.674723     0.386062     0.327109    Uiso  ? Ni
   Ni38       1.0     0.787090     0.500819     0.327990    Uiso  ? Ni
   Ni39       1.0     0.675380     0.501204     0.441343    Uiso  ? Ni
   Ni40       1.0     0.787377     0.386415     0.441856    Uiso  ? Ni
   Ni41       1.0     0.899932     0.500691     0.442447    Uiso  ? Ni
   Ni42       1.0     0.102303     0.615674     0.441823    Uiso  ? Ni
   Ni43       1.0     0.215923     0.616039     0.327393    Uiso  ? Ni
   Ni44       1.0     0.330310     0.729950     0.327668    Uiso  ? Ni
   Ni45       1.0     0.216248     0.729936     0.441747    Uiso  ? Ni
   Ni46       1.0     0.329497     0.617620     0.440640    Uiso  ? Ni
   Ni47       1.0     0.444823     0.618127     0.326716    Uiso  ? Ni
   Ni48       1.0     0.559649     0.729980     0.327585    Uiso  ? Ni
   Ni49       1.0     0.444831     0.730526     0.441588    Uiso  ? Ni
   Ni50       1.0     0.560671     0.616937     0.439820    Uiso  ? Ni
   Ni51       1.0     0.674256     0.615593     0.327571    Uiso  ? Ni
   Ni52       1.0     0.786930     0.728866     0.328407    Uiso  ? Ni
   Ni53       1.0     0.673906     0.729652     0.441980    Uiso  ? Ni
   Ni54       1.0     0.787497     0.615164     0.441970    Uiso  ? Ni
   Ni55       1.0     0.330736     0.842699     0.442184    Uiso  ? Ni
   Ni56       1.0     0.444936     0.842569     0.328170    Uiso  ? Ni
   Ni57       1.0     0.559175     0.842929     0.442019    Uiso  ? Ni
   Ni58       1.0     0.329461     0.268204     0.556302    Uiso  ? Ni
   Ni59       1.0     0.215368     0.270706     0.671565    Uiso  ? Ni
   Ni60       1.0     0.445156     0.157025     0.556557    Uiso  ? Ni
   Ni61       1.0     0.560951     0.268796     0.556573    Uiso  ? Ni
   Ni62       1.0     0.445392     0.268564     0.672398    Uiso  ? Ni
   Ni63       1.0     0.559857     0.157511     0.671256    Uiso  ? Ni
   Ni64       1.0     0.673947     0.157832     0.556511    Uiso  ? Ni
   Ni65       1.0     0.787472     0.271927     0.556531    Uiso  ? Ni
   Ni66       1.0     0.674356     0.271421     0.671295    Uiso  ? Ni
   Ni67       1.0     0.100000     0.501205     0.556232    Uiso  ? Ni
   Ni68       1.0     0.213149     0.383874     0.556200    Uiso  ? Ni
   Ni69       1.0     0.329232     0.503411     0.555027    Uiso  ? Ni
   Ni70       1.0     0.213554     0.501527     0.673429    Uiso  ? Ni
   Ni71       1.0     0.328155     0.383861     0.674067    Uiso  ? Ni
   Ni72       1.0     0.445411     0.383078     0.556661    Uiso  ? Ni
   Ni73       1.0     0.563092     0.501550     0.556706    Uiso  ? Ni
   Ni74       1.0     0.447074     0.503363     0.674404    Uiso  ? Ni
   Ni75       1.0     0.562653     0.385370     0.674070    Uiso  ? Ni
   Ni76       1.0     0.676880     0.385684     0.556596    Uiso  ? Ni
   Ni77       1.0     0.787599     0.500863     0.556643    Uiso  ? Ni
   Ni78       1.0     0.674941     0.501233     0.672083    Uiso  ? Ni
   Ni79       1.0     0.787288     0.386485     0.671244    Uiso  ? Ni
   Ni80       1.0     0.899788     0.386654     0.556522    Uiso  ? Ni
   Ni81       1.0     0.900000     0.500694     0.670575    Uiso  ? Ni
   Ni82       1.0     0.215377     0.618343     0.556234    Uiso  ? Ni
   Ni83       1.0     0.330105     0.730790     0.556291    Uiso  ? Ni
   Ni84       1.0     0.216148     0.730047     0.671175    Uiso  ? Ni
   Ni85       1.0     0.329947     0.618599     0.672319    Uiso  ? Ni
   Ni86       1.0     0.443812     0.619520     0.556615    Uiso  ? Ni
   Ni87       1.0     0.559907     0.731875     0.556569    Uiso  ? Ni
   Ni88       1.0     0.445141     0.730451     0.671773    Uiso  ? Ni
   Ni89       1.0     0.560644     0.616851     0.673549    Uiso  ? Ni
   Ni90       1.0     0.676341     0.616102     0.556597    Uiso  ? Ni
   Ni91       1.0     0.787431     0.729350     0.556531    Uiso  ? Ni
   Ni92       1.0     0.673840     0.729604     0.671116    Uiso  ? Ni
   Ni93       1.0     0.787413     0.615109     0.671130    Uiso  ? Ni
   Ni94       1.0     0.899951     0.614737     0.556521    Uiso  ? Ni
   Ni95       1.0     0.444738     0.842799     0.556564    Uiso  ? Ni
   Ni96       1.0     0.559217     0.842955     0.671040    Uiso  ? Ni
   Ni97       1.0     0.673508     0.842975     0.556513    Uiso  ? Ni
   Ni98       1.0     0.330370     0.271006     0.786212    Uiso  ? Ni
   Ni99       1.0     0.559870     0.271385     0.785893    Uiso  ? Ni
   Ni100      1.0     0.786936     0.272531     0.784701    Uiso  ? Ni
   Ni101      1.0     0.330300     0.501520     0.788314    Uiso  ? Ni
   Ni102      1.0     0.445477     0.385769     0.788345    Uiso  ? Ni
   Ni103      1.0     0.560643     0.501274     0.786869    Uiso  ? Ni
   Ni104      1.0     0.445487     0.501227     0.899205    Uiso  ? Ni
   Ni105      1.0     0.559796     0.386438     0.898955    Uiso  ? Ni
   Ni106      1.0     0.674372     0.386392     0.785933    Uiso  ? Ni
   Ni107      1.0     0.787117     0.500832     0.784976    Uiso  ? Ni
   Ni108      1.0     0.673487     0.500870     0.898744    Uiso  ? Ni
   Ni109      1.0     0.330728     0.729790     0.785535    Uiso  ? Ni
   Ni110      1.0     0.445198     0.616541     0.786632    Uiso  ? Ni
   Ni111      1.0     0.559416     0.729657     0.785456    Uiso  ? Ni
   Ni112      1.0     0.559399     0.615244     0.898627    Uiso  ? Ni
   Ni113      1.0     0.673876     0.615293     0.785462    Uiso  ? Ni
   Ni114      1.0     0.786822     0.728750     0.784559    Uiso  ? Ni
   H1         1.0     0.445710     0.502370     0.556713    Uiso  ? H
   H2         1.0     0.445280     0.501763     0.326054    Uiso  ? H
   H3         1.0     0.445215     0.384979     0.440247    Uiso  ? H
   H4         1.0     0.328687     0.384394     0.556177    Uiso  ? H
   H5         1.0     0.213889     0.501603     0.555872    Uiso  ? H
   H6         1.0     0.329918     0.502175     0.673052    Uiso  ? H
   H7         1.0     0.562299     0.384989     0.556629    Uiso  ? H
   H8         1.0     0.445840     0.385127     0.673640    Uiso  ? H
   H9         1.0     0.560523     0.616954     0.556633    Uiso  ? H
