
#======================================================================
# CRYSTAL DATA
#----------------------------------------------------------------------
data_VESTA_phase_1

_chemical_name_common                  ' Ni H'
_cell_length_a                         15.521638
_cell_length_b                         15.521638
_cell_length_c                         15.521638
_cell_angle_alpha                      90.000000
_cell_angle_beta                       90.000000
_cell_angle_gamma                      90.000000
_cell_volume                           1.000000
_space_group_name_H-M_alt              'P 1'
_space_group_IT_number                 1

loop_
_space_group_symop_operation_xyz
   'x, y, z'

loop_
   _atom_site_label
   _atom_site_occupancy
   _atom_site_fract_x
   _atom_site_fract_y
   _atom_site_fract_z
   _atom_site_adp_type
   _atom_site_U_iso_or_equiv
   _atom_site_type_symbol
   Ni1        1.0     0.217427     0.270576     0.213817    Uiso  ? Ni
   Ni2        1.0     0.446323     0.270256     0.213531    Uiso  ? Ni
   Ni3        1.0     0.674114     0.271579     0.214796    Uiso  ? Ni
   Ni4        1.0     0.331778     0.499612     0.100452    Uiso  ? Ni
   Ni5        1.0     0.216424     0.499919     0.211460    Uiso  ? Ni
   Ni6        1.0     0.331702     0.384046     0.212639    Uiso  ? Ni
   Ni7        1.0     0.446260     0.385093     0.100975    Uiso  ? Ni
   Ni8        1.0     0.560727     0.499888     0.101037    Uiso  ? Ni
   Ni9        1.0     0.446876     0.499614     0.210853    Uiso  ? Ni
   Ni10       1.0     0.561300     0.384722     0.213375    Uiso  ? Ni
   Ni11       1.0     0.675054     0.499915     0.213855    Uiso  ? Ni
   Ni12       1.0     0.217136     0.729337     0.213968    Uiso  ? Ni
   Ni13       1.0     0.331437     0.615402     0.211481    Uiso  ? Ni
   Ni14       1.0     0.446455     0.614669     0.100791    Uiso  ? Ni
   Ni15       1.0     0.446455     0.729840     0.213474    Uiso  ? Ni
   Ni16       1.0     0.561521     0.615068     0.213227    Uiso  ? Ni
   Ni17       1.0     0.674123     0.728392     0.214795    Uiso  ? Ni
   Ni18       1.0     0.331645     0.269180     0.326947    Uiso  ? Ni
   Ni19       1.0     0.216254     0.267854     0.442494    Uiso  ? Ni
   Ni20       1.0     0.331645     0.156753     0.442429    Uiso  ? Ni
   Ni21       1.0     0.446239     0.157267     0.327973    Uiso  ? Ni
   Ni22       1.0     0.561346     0.269888     0.327588    Uiso  ? Ni
   Ni23       1.0     0.446860     0.267084     0.441831    Uiso  ? Ni
   Ni24       1.0     0.560868     0.157251     0.442596    Uiso  ? Ni
   Ni25       1.0     0.787488     0.271720     0.328846    Uiso  ? Ni
   Ni26       1.0     0.675295     0.270331     0.442567    Uiso  ? Ni
   Ni27       1.0     0.100373     0.500068     0.327720    Uiso  ? Ni
   Ni28       1.0     0.100322     0.384672     0.442655    Uiso  ? Ni
   Ni29       1.0     0.215842     0.382521     0.325411    Uiso  ? Ni
   Ni30       1.0     0.331008     0.498370     0.325164    Uiso  ? Ni
   Ni31       1.0     0.214379     0.501601     0.442566    Uiso  ? Ni
   Ni32       1.0     0.330824     0.381950     0.440446    Uiso  ? Ni
   Ni33       1.0     0.447300     0.381768     0.324690    Uiso  ? Ni
   Ni34       1.0     0.563811     0.499685     0.325327    Uiso  ? Ni
   Ni35       1.0     0.446228     0.500016     0.441467    Uiso  ? Ni
   Ni36       1.0     0.564109     0.382104     0.441551    Uiso  ? Ni
   Ni37       1.0     0.675554     0.384753     0.327663    Uiso  ? Ni
   Ni38       1.0     0.787765     0.499979     0.328227    Uiso  ? Ni
   Ni39       1.0     0.678017     0.499945     0.442131    Uiso  ? Ni
   Ni40       1.0     0.787829     0.385209     0.442667    Uiso  ? Ni
   Ni41       1.0     0.899763     0.499991     0.442896    Uiso  ? Ni
   Ni42       1.0     0.101546     0.615840     0.442934    Uiso  ? Ni
   Ni43       1.0     0.214230     0.617453     0.327058    Uiso  ? Ni
   Ni44       1.0     0.331280     0.732139     0.327519    Uiso  ? Ni
   Ni45       1.0     0.215699     0.730792     0.442879    Uiso  ? Ni
   Ni46       1.0     0.329033     0.618034     0.442246    Uiso  ? Ni
   Ni47       1.0     0.448454     0.617772     0.325078    Uiso  ? Ni
   Ni48       1.0     0.561603     0.730272     0.327707    Uiso  ? Ni
   Ni49       1.0     0.446798     0.732918     0.442249    Uiso  ? Ni
   Ni50       1.0     0.564431     0.617898     0.441892    Uiso  ? Ni
   Ni51       1.0     0.675432     0.615102     0.327682    Uiso  ? Ni
   Ni52       1.0     0.787435     0.728226     0.328854    Uiso  ? Ni
   Ni53       1.0     0.675386     0.729705     0.442648    Uiso  ? Ni
   Ni54       1.0     0.787792     0.614748     0.442668    Uiso  ? Ni
   Ni55       1.0     0.331208     0.843247     0.442868    Uiso  ? Ni
   Ni56       1.0     0.446419     0.842990     0.328151    Uiso  ? Ni
   Ni57       1.0     0.560893     0.842764     0.442727    Uiso  ? Ni
   Ni58       1.0     0.331087     0.267402     0.557878    Uiso  ? Ni
   Ni59       1.0     0.216366     0.269761     0.672726    Uiso  ? Ni
   Ni60       1.0     0.446458     0.156795     0.557239    Uiso  ? Ni
   Ni61       1.0     0.562110     0.268914     0.557185    Uiso  ? Ni
   Ni62       1.0     0.446199     0.267837     0.672834    Uiso  ? Ni
   Ni63       1.0     0.560589     0.157506     0.671435    Uiso  ? Ni
   Ni64       1.0     0.674382     0.157622     0.556991    Uiso  ? Ni
   Ni65       1.0     0.787652     0.271469     0.556942    Uiso  ? Ni
   Ni66       1.0     0.675089     0.270584     0.671426    Uiso  ? Ni
   Ni67       1.0     0.100000     0.500371     0.558324    Uiso  ? Ni
   Ni68       1.0     0.213869     0.382488     0.559678    Uiso  ? Ni
   Ni69       1.0     0.330103     0.499994     0.559215    Uiso  ? Ni
   Ni70       1.0     0.215159     0.500282     0.675197    Uiso  ? Ni
   Ni71       1.0     0.328981     0.383394     0.675407    Uiso  ? Ni
   Ni72       1.0     0.448493     0.381071     0.557881    Uiso  ? Ni
   Ni73       1.0     0.564791     0.499990     0.557595    Uiso  ? Ni
   Ni74       1.0     0.445079     0.500015     0.675796    Uiso  ? Ni
   Ni75       1.0     0.563609     0.382587     0.673000    Uiso  ? Ni
   Ni76       1.0     0.676165     0.384241     0.557117    Uiso  ? Ni
   Ni77       1.0     0.788051     0.499976     0.557047    Uiso  ? Ni
   Ni78       1.0     0.677698     0.499990     0.672263    Uiso  ? Ni
   Ni79       1.0     0.787814     0.385304     0.671210    Uiso  ? Ni
   Ni80       1.0     0.900000     0.386007     0.556861    Uiso  ? Ni
   Ni81       1.0     0.899914     0.499987     0.670799    Uiso  ? Ni
   Ni82       1.0     0.213507     0.617955     0.558574    Uiso  ? Ni
   Ni83       1.0     0.330676     0.732620     0.557952    Uiso  ? Ni
   Ni84       1.0     0.216254     0.730088     0.672481    Uiso  ? Ni
   Ni85       1.0     0.328678     0.616644     0.675086    Uiso  ? Ni
   Ni86       1.0     0.448360     0.618934     0.558006    Uiso  ? Ni
   Ni87       1.0     0.562148     0.731100     0.557304    Uiso  ? Ni
   Ni88       1.0     0.446096     0.732166     0.672805    Uiso  ? Ni
   Ni89       1.0     0.563579     0.617419     0.673004    Uiso  ? Ni
   Ni90       1.0     0.676271     0.615735     0.557238    Uiso  ? Ni
   Ni91       1.0     0.787690     0.728531     0.556983    Uiso  ? Ni
   Ni92       1.0     0.675115     0.729417     0.671471    Uiso  ? Ni
   Ni93       1.0     0.787855     0.614677     0.671251    Uiso  ? Ni
   Ni94       1.0     0.899989     0.613970     0.556861    Uiso  ? Ni
   Ni95       1.0     0.446363     0.843215     0.557344    Uiso  ? Ni
   Ni96       1.0     0.560566     0.842498     0.671467    Uiso  ? Ni
   Ni97       1.0     0.674414     0.842394     0.557051    Uiso  ? Ni
   Ni98       1.0     0.331186     0.270403     0.786480    Uiso  ? Ni
   Ni99       1.0     0.560561     0.270694     0.786121    Uiso  ? Ni
   Ni100      1.0     0.787317     0.271965     0.784806    Uiso  ? Ni
   Ni101      1.0     0.330227     0.500065     0.787945    Uiso  ? Ni
   Ni102      1.0     0.445969     0.384353     0.788955    Uiso  ? Ni
   Ni103      1.0     0.561430     0.500012     0.788521    Uiso  ? Ni
   Ni104      1.0     0.445551     0.500021     0.899548    Uiso  ? Ni
   Ni105      1.0     0.560409     0.385398     0.899426    Uiso  ? Ni
   Ni106      1.0     0.675014     0.385309     0.786056    Uiso  ? Ni
   Ni107      1.0     0.787922     0.499992     0.785451    Uiso  ? Ni
   Ni108      1.0     0.674367     0.500006     0.899121    Uiso  ? Ni
   Ni109      1.0     0.331113     0.729568     0.786401    Uiso  ? Ni
   Ni110      1.0     0.445871     0.615676     0.788879    Uiso  ? Ni
   Ni111      1.0     0.560525     0.729303     0.786099    Uiso  ? Ni
   Ni112      1.0     0.560376     0.614619     0.899396    Uiso  ? Ni
   Ni113      1.0     0.675013     0.614690     0.786049    Uiso  ? Ni
   Ni114      1.0     0.787334     0.728033     0.784823    Uiso  ? Ni
   H1         1.0     0.446884     0.499997     0.557951    Uiso  ? H
   H2         1.0     0.215612     0.500002     0.326965    Uiso  ? H
   H3         1.0     0.215500     0.384079     0.442123    Uiso  ? H
   H4         1.0     0.447043     0.499340     0.325171    Uiso  ? H
   H5         1.0     0.447100     0.382698     0.441151    Uiso  ? H
   H6         1.0     0.563668     0.500035     0.441802    Uiso  ? H
   H7         1.0     0.330919     0.615932     0.326820    Uiso  ? H
   H8         1.0     0.447235     0.617345     0.441880    Uiso  ? H
   H9         1.0     0.330853     0.383267     0.558198    Uiso  ? H
   H10        1.0     0.214614     0.500594     0.559059    Uiso  ? H
   H11        1.0     0.446315     0.383335     0.674174    Uiso  ? H
   H12        1.0     0.562704     0.500021     0.673269    Uiso  ? H
   H13        1.0     0.330176     0.616717     0.558109    Uiso  ? H
   H14        1.0     0.446106     0.616662     0.674179    Uiso  ? H
