
#======================================================================
# CRYSTAL DATA
#----------------------------------------------------------------------
data_VESTA_phase_1

_chemical_name_common                  ' Ni H'
_cell_length_a                         15.524957
_cell_length_b                         15.524957
_cell_length_c                         15.524957
_cell_angle_alpha                      90.000000
_cell_angle_beta                       90.000000
_cell_angle_gamma                      90.000000
_cell_volume                           1.000000
_space_group_name_H-M_alt              'P 1'
_space_group_IT_number                 1

loop_
_space_group_symop_operation_xyz
   'x, y, z'

loop_
   _atom_site_label
   _atom_site_occupancy
   _atom_site_fract_x
   _atom_site_fract_y
   _atom_site_fract_z
   _atom_site_adp_type
   _atom_site_U_iso_or_equiv
   _atom_site_type_symbol
   Ni1        1.0     0.217401     0.270395     0.214149    Uiso  ? Ni
   Ni2        1.0     0.446167     0.270049     0.213800    Uiso  ? Ni
   Ni3        1.0     0.673922     0.271310     0.215055    Uiso  ? Ni
   Ni4        1.0     0.331655     0.499325     0.100711    Uiso  ? Ni
   Ni5        1.0     0.216331     0.499614     0.211732    Uiso  ? Ni
   Ni6        1.0     0.331603     0.383784     0.212907    Uiso  ? Ni
   Ni7        1.0     0.446117     0.384831     0.101220    Uiso  ? Ni
   Ni8        1.0     0.560574     0.499600     0.101344    Uiso  ? Ni
   Ni9        1.0     0.446692     0.499261     0.211098    Uiso  ? Ni
   Ni10       1.0     0.561105     0.384342     0.213560    Uiso  ? Ni
   Ni11       1.0     0.674936     0.499518     0.214047    Uiso  ? Ni
   Ni12       1.0     0.216978     0.729056     0.214158    Uiso  ? Ni
   Ni13       1.0     0.331208     0.615091     0.211629    Uiso  ? Ni
   Ni14       1.0     0.446324     0.614367     0.101098    Uiso  ? Ni
   Ni15       1.0     0.446235     0.729586     0.213642    Uiso  ? Ni
   Ni16       1.0     0.561360     0.614738     0.213526    Uiso  ? Ni
   Ni17       1.0     0.674034     0.728140     0.214942    Uiso  ? Ni
   Ni18       1.0     0.331599     0.269052     0.327354    Uiso  ? Ni
   Ni19       1.0     0.216327     0.267701     0.442919    Uiso  ? Ni
   Ni20       1.0     0.331653     0.156749     0.442888    Uiso  ? Ni
   Ni21       1.0     0.446103     0.157269     0.328422    Uiso  ? Ni
   Ni22       1.0     0.561106     0.269646     0.327880    Uiso  ? Ni
   Ni23       1.0     0.446679     0.267167     0.442614    Uiso  ? Ni
   Ni24       1.0     0.560604     0.157312     0.443076    Uiso  ? Ni
   Ni25       1.0     0.787285     0.271442     0.329125    Uiso  ? Ni
   Ni26       1.0     0.675026     0.270100     0.442947    Uiso  ? Ni
   Ni27       1.0     0.100346     0.499760     0.328004    Uiso  ? Ni
   Ni28       1.0     0.100409     0.384411     0.443020    Uiso  ? Ni
   Ni29       1.0     0.215885     0.382262     0.325825    Uiso  ? Ni
   Ni30       1.0     0.330857     0.498003     0.325409    Uiso  ? Ni
   Ni31       1.0     0.214351     0.501224     0.442873    Uiso  ? Ni
   Ni32       1.0     0.330931     0.381645     0.441192    Uiso  ? Ni
   Ni33       1.0     0.447113     0.381436     0.325044    Uiso  ? Ni
   Ni34       1.0     0.563594     0.499019     0.325292    Uiso  ? Ni
   Ni35       1.0     0.445734     0.499137     0.441853    Uiso  ? Ni
   Ni36       1.0     0.563606     0.381423     0.442010    Uiso  ? Ni
   Ni37       1.0     0.675319     0.384312     0.327923    Uiso  ? Ni
   Ni38       1.0     0.787707     0.499512     0.328349    Uiso  ? Ni
   Ni39       1.0     0.678016     0.499116     0.442117    Uiso  ? Ni
   Ni40       1.0     0.787703     0.384725     0.442956    Uiso  ? Ni
   Ni41       1.0     0.899660     0.499561     0.443068    Uiso  ? Ni
   Ni42       1.0     0.101527     0.615513     0.443172    Uiso  ? Ni
   Ni43       1.0     0.214011     0.617138     0.327199    Uiso  ? Ni
   Ni44       1.0     0.330995     0.731884     0.327620    Uiso  ? Ni
   Ni45       1.0     0.215499     0.730541     0.443053    Uiso  ? Ni
   Ni46       1.0     0.328490     0.617657     0.442253    Uiso  ? Ni
   Ni47       1.0     0.447960     0.617380     0.325007    Uiso  ? Ni
   Ni48       1.0     0.561386     0.730249     0.327493    Uiso  ? Ni
   Ni49       1.0     0.446202     0.732786     0.442126    Uiso  ? Ni
   Ni50       1.0     0.564148     0.617406     0.440416    Uiso  ? Ni
   Ni51       1.0     0.675606     0.614709     0.327472    Uiso  ? Ni
   Ni52       1.0     0.787410     0.727978     0.328926    Uiso  ? Ni
   Ni53       1.0     0.675497     0.729631     0.442533    Uiso  ? Ni
   Ni54       1.0     0.788015     0.614313     0.442514    Uiso  ? Ni
   Ni55       1.0     0.330904     0.843072     0.442995    Uiso  ? Ni
   Ni56       1.0     0.446153     0.842816     0.328220    Uiso  ? Ni
   Ni57       1.0     0.560654     0.842800     0.442582    Uiso  ? Ni
   Ni58       1.0     0.331320     0.267391     0.558578    Uiso  ? Ni
   Ni59       1.0     0.216744     0.269825     0.672982    Uiso  ? Ni
   Ni60       1.0     0.446357     0.157106     0.557952    Uiso  ? Ni
   Ni61       1.0     0.561524     0.269132     0.557893    Uiso  ? Ni
   Ni62       1.0     0.446009     0.269347     0.673310    Uiso  ? Ni
   Ni63       1.0     0.560043     0.157832     0.671703    Uiso  ? Ni
   Ni64       1.0     0.674000     0.157685     0.557366    Uiso  ? Ni
   Ni65       1.0     0.787534     0.271149     0.557271    Uiso  ? Ni
   Ni66       1.0     0.674531     0.270604     0.671765    Uiso  ? Ni
   Ni67       1.0     0.100000     0.500002     0.558597    Uiso  ? Ni
   Ni68       1.0     0.214123     0.382138     0.560272    Uiso  ? Ni
   Ni69       1.0     0.329925     0.499128     0.559938    Uiso  ? Ni
   Ni70       1.0     0.215443     0.499539     0.675439    Uiso  ? Ni
   Ni71       1.0     0.330582     0.382911     0.675735    Uiso  ? Ni
   Ni72       1.0     0.448002     0.380514     0.560202    Uiso  ? Ni
   Ni73       1.0     0.564285     0.497339     0.558155    Uiso  ? Ni
   Ni74       1.0     0.444589     0.497340     0.676283    Uiso  ? Ni
   Ni75       1.0     0.561664     0.381761     0.673677    Uiso  ? Ni
   Ni76       1.0     0.675945     0.383421     0.557749    Uiso  ? Ni
   Ni77       1.0     0.788221     0.499126     0.557338    Uiso  ? Ni
   Ni78       1.0     0.677420     0.498893     0.672858    Uiso  ? Ni
   Ni79       1.0     0.787849     0.384823     0.671534    Uiso  ? Ni
   Ni80       1.0     0.900000     0.385548     0.557090    Uiso  ? Ni
   Ni81       1.0     0.899874     0.499566     0.671080    Uiso  ? Ni
   Ni82       1.0     0.213390     0.617541     0.558846    Uiso  ? Ni
   Ni83       1.0     0.330080     0.732557     0.558184    Uiso  ? Ni
   Ni84       1.0     0.216199     0.729690     0.672735    Uiso  ? Ni
   Ni85       1.0     0.328462     0.615821     0.675552    Uiso  ? Ni
   Ni86       1.0     0.446254     0.618294     0.558534    Uiso  ? Ni
   Ni87       1.0     0.561757     0.732257     0.557509    Uiso  ? Ni
   Ni88       1.0     0.445512     0.731983     0.673393    Uiso  ? Ni
   Ni89       1.0     0.562973     0.616466     0.674947    Uiso  ? Ni
   Ni90       1.0     0.677801     0.615083     0.557458    Uiso  ? Ni
   Ni91       1.0     0.787898     0.728487     0.557206    Uiso  ? Ni
   Ni92       1.0     0.675072     0.729193     0.671969    Uiso  ? Ni
   Ni93       1.0     0.787996     0.614135     0.671840    Uiso  ? Ni
   Ni94       1.0     0.899712     0.613587     0.557082    Uiso  ? Ni
   Ni95       1.0     0.445794     0.843251     0.557551    Uiso  ? Ni
   Ni96       1.0     0.560306     0.842545     0.671994    Uiso  ? Ni
   Ni97       1.0     0.674533     0.842430     0.557254    Uiso  ? Ni
   Ni98       1.0     0.331417     0.270432     0.786362    Uiso  ? Ni
   Ni99       1.0     0.560091     0.270606     0.786139    Uiso  ? Ni
   Ni100      1.0     0.787092     0.271720     0.784971    Uiso  ? Ni
   Ni101      1.0     0.330422     0.499214     0.787800    Uiso  ? Ni
   Ni102      1.0     0.445866     0.383731     0.787304    Uiso  ? Ni
   Ni103      1.0     0.560845     0.498901     0.788746    Uiso  ? Ni
   Ni104      1.0     0.445344     0.499140     0.899256    Uiso  ? Ni
   Ni105      1.0     0.559848     0.384910     0.899211    Uiso  ? Ni
   Ni106      1.0     0.674466     0.384814     0.786034    Uiso  ? Ni
   Ni107      1.0     0.787816     0.499464     0.785720    Uiso  ? Ni
   Ni108      1.0     0.674077     0.499473     0.899157    Uiso  ? Ni
   Ni109      1.0     0.330904     0.729161     0.786616    Uiso  ? Ni
   Ni110      1.0     0.445392     0.614759     0.789030    Uiso  ? Ni
   Ni111      1.0     0.560244     0.729171     0.786614    Uiso  ? Ni
   Ni112      1.0     0.560097     0.614068     0.899289    Uiso  ? Ni
   Ni113      1.0     0.675034     0.614134     0.786581    Uiso  ? Ni
   Ni114      1.0     0.787221     0.727702     0.785105    Uiso  ? Ni
   H1         1.0     0.446220     0.498741     0.558775    Uiso  ? H
   H2         1.0     0.215502     0.499680     0.327281    Uiso  ? H
   H3         1.0     0.215658     0.383809     0.442632    Uiso  ? H
   H4         1.0     0.446835     0.498937     0.325546    Uiso  ? H
   H5         1.0     0.446936     0.382310     0.442223    Uiso  ? H
   H6         1.0     0.563435     0.499105     0.441612    Uiso  ? H
   H7         1.0     0.330570     0.615620     0.326860    Uiso  ? H
   H8         1.0     0.446352     0.616744     0.441771    Uiso  ? H
   H9         1.0     0.331161     0.382819     0.559357    Uiso  ? H
   H10        1.0     0.214420     0.500204     0.559285    Uiso  ? H
   H11        1.0     0.561806     0.498223     0.674069    Uiso  ? H
   H12        1.0     0.329360     0.616300     0.558295    Uiso  ? H
   H13        1.0     0.563101     0.616018     0.557819    Uiso  ? H
   H14        1.0     0.445319     0.615372     0.674861    Uiso  ? H
