
#======================================================================
# CRYSTAL DATA
#----------------------------------------------------------------------
data_VESTA_phase_1

_chemical_name_common                  ' Ni H'
_cell_length_a                         15.512802
_cell_length_b                         15.512802
_cell_length_c                         15.512802
_cell_angle_alpha                      90.000000
_cell_angle_beta                       90.000000
_cell_angle_gamma                      90.000000
_cell_volume                           1.000000
_space_group_name_H-M_alt              'P 1'
_space_group_IT_number                 1

loop_
_space_group_symop_operation_xyz
   'x, y, z'

loop_
   _atom_site_label
   _atom_site_occupancy
   _atom_site_fract_x
   _atom_site_fract_y
   _atom_site_fract_z
   _atom_site_adp_type
   _atom_site_U_iso_or_equiv
   _atom_site_type_symbol
   Ni1        1.0     0.217048     0.270572     0.214012    Uiso  ? Ni
   Ni2        1.0     0.445965     0.270234     0.213708    Uiso  ? Ni
   Ni3        1.0     0.673887     0.271495     0.214923    Uiso  ? Ni
   Ni4        1.0     0.331384     0.499659     0.100489    Uiso  ? Ni
   Ni5        1.0     0.216066     0.500001     0.211682    Uiso  ? Ni
   Ni6        1.0     0.331330     0.384154     0.212881    Uiso  ? Ni
   Ni7        1.0     0.445902     0.385086     0.101033    Uiso  ? Ni
   Ni8        1.0     0.560408     0.499927     0.101136    Uiso  ? Ni
   Ni9        1.0     0.446447     0.499642     0.211035    Uiso  ? Ni
   Ni10       1.0     0.560978     0.384633     0.213450    Uiso  ? Ni
   Ni11       1.0     0.674814     0.499880     0.213961    Uiso  ? Ni
   Ni12       1.0     0.216722     0.729406     0.214184    Uiso  ? Ni
   Ni13       1.0     0.330941     0.615470     0.211635    Uiso  ? Ni
   Ni14       1.0     0.446083     0.614743     0.100880    Uiso  ? Ni
   Ni15       1.0     0.445957     0.729942     0.213652    Uiso  ? Ni
   Ni16       1.0     0.561085     0.615109     0.213526    Uiso  ? Ni
   Ni17       1.0     0.673866     0.728515     0.214943    Uiso  ? Ni
   Ni18       1.0     0.331295     0.269262     0.327311    Uiso  ? Ni
   Ni19       1.0     0.215938     0.267922     0.442831    Uiso  ? Ni
   Ni20       1.0     0.331314     0.156680     0.442746    Uiso  ? Ni
   Ni21       1.0     0.445924     0.157225     0.328248    Uiso  ? Ni
   Ni22       1.0     0.561038     0.269887     0.327844    Uiso  ? Ni
   Ni23       1.0     0.446505     0.267158     0.442237    Uiso  ? Ni
   Ni24       1.0     0.560579     0.157322     0.443023    Uiso  ? Ni
   Ni25       1.0     0.787309     0.271650     0.329086    Uiso  ? Ni
   Ni26       1.0     0.675005     0.270375     0.442974    Uiso  ? Ni
   Ni27       1.0     0.100057     0.500185     0.328106    Uiso  ? Ni
   Ni28       1.0     0.100017     0.384852     0.442986    Uiso  ? Ni
   Ni29       1.0     0.215514     0.382607     0.325723    Uiso  ? Ni
   Ni30       1.0     0.330644     0.498673     0.325772    Uiso  ? Ni
   Ni31       1.0     0.214495     0.501994     0.443150    Uiso  ? Ni
   Ni32       1.0     0.330447     0.382403     0.441069    Uiso  ? Ni
   Ni33       1.0     0.446918     0.381822     0.324994    Uiso  ? Ni
   Ni34       1.0     0.563411     0.499417     0.325400    Uiso  ? Ni
   Ni35       1.0     0.445425     0.500091     0.442176    Uiso  ? Ni
   Ni36       1.0     0.563723     0.382092     0.442040    Uiso  ? Ni
   Ni37       1.0     0.675293     0.384664     0.327881    Uiso  ? Ni
   Ni38       1.0     0.787568     0.499884     0.328461    Uiso  ? Ni
   Ni39       1.0     0.677621     0.499574     0.442605    Uiso  ? Ni
   Ni40       1.0     0.787629     0.385126     0.443051    Uiso  ? Ni
   Ni41       1.0     0.899651     0.499895     0.443250    Uiso  ? Ni
   Ni42       1.0     0.101588     0.615921     0.443586    Uiso  ? Ni
   Ni43       1.0     0.214014     0.617534     0.327646    Uiso  ? Ni
   Ni44       1.0     0.330715     0.731997     0.328112    Uiso  ? Ni
   Ni45       1.0     0.215566     0.730637     0.443474    Uiso  ? Ni
   Ni46       1.0     0.328172     0.618029     0.444165    Uiso  ? Ni
   Ni47       1.0     0.447489     0.617804     0.325363    Uiso  ? Ni
   Ni48       1.0     0.561086     0.730502     0.327745    Uiso  ? Ni
   Ni49       1.0     0.445589     0.732904     0.442641    Uiso  ? Ni
   Ni50       1.0     0.563594     0.617553     0.441116    Uiso  ? Ni
   Ni51       1.0     0.675336     0.615052     0.327678    Uiso  ? Ni
   Ni52       1.0     0.787316     0.728340     0.329017    Uiso  ? Ni
   Ni53       1.0     0.675222     0.729850     0.442813    Uiso  ? Ni
   Ni54       1.0     0.787887     0.614628     0.442746    Uiso  ? Ni
   Ni55       1.0     0.330616     0.843155     0.443473    Uiso  ? Ni
   Ni56       1.0     0.445856     0.843111     0.328422    Uiso  ? Ni
   Ni57       1.0     0.560322     0.843033     0.442859    Uiso  ? Ni
   Ni58       1.0     0.330778     0.267507     0.558236    Uiso  ? Ni
   Ni59       1.0     0.216175     0.269980     0.672978    Uiso  ? Ni
   Ni60       1.0     0.446197     0.156798     0.557621    Uiso  ? Ni
   Ni61       1.0     0.561729     0.269405     0.557885    Uiso  ? Ni
   Ni62       1.0     0.446117     0.268188     0.673177    Uiso  ? Ni
   Ni63       1.0     0.560297     0.157424     0.671787    Uiso  ? Ni
   Ni64       1.0     0.674044     0.157684     0.557402    Uiso  ? Ni
   Ni65       1.0     0.787421     0.271487     0.557394    Uiso  ? Ni
   Ni66       1.0     0.674540     0.270927     0.671883    Uiso  ? Ni
   Ni67       1.0     0.100000     0.500789     0.558594    Uiso  ? Ni
   Ni68       1.0     0.213791     0.382998     0.560012    Uiso  ? Ni
   Ni69       1.0     0.329837     0.501741     0.559886    Uiso  ? Ni
   Ni70       1.0     0.215091     0.500700     0.675239    Uiso  ? Ni
   Ni71       1.0     0.329027     0.384149     0.675441    Uiso  ? Ni
   Ni72       1.0     0.447964     0.381414     0.558478    Uiso  ? Ni
   Ni73       1.0     0.564027     0.498376     0.559921    Uiso  ? Ni
   Ni74       1.0     0.446008     0.500058     0.676036    Uiso  ? Ni
   Ni75       1.0     0.563329     0.383983     0.673714    Uiso  ? Ni
   Ni76       1.0     0.675795     0.384246     0.557869    Uiso  ? Ni
   Ni77       1.0     0.787870     0.499544     0.557811    Uiso  ? Ni
   Ni78       1.0     0.675890     0.499659     0.673109    Uiso  ? Ni
   Ni79       1.0     0.787328     0.385516     0.671711    Uiso  ? Ni
   Ni80       1.0     0.899958     0.385892     0.557284    Uiso  ? Ni
   Ni81       1.0     0.900000     0.499893     0.671268    Uiso  ? Ni
   Ni82       1.0     0.214872     0.618171     0.558961    Uiso  ? Ni
   Ni83       1.0     0.329829     0.731352     0.558416    Uiso  ? Ni
   Ni84       1.0     0.216168     0.729887     0.672599    Uiso  ? Ni
   Ni85       1.0     0.328195     0.616523     0.674008    Uiso  ? Ni
   Ni86       1.0     0.444492     0.618835     0.558697    Uiso  ? Ni
   Ni87       1.0     0.561161     0.732112     0.557940    Uiso  ? Ni
   Ni88       1.0     0.445254     0.731969     0.673226    Uiso  ? Ni
   Ni89       1.0     0.562771     0.615595     0.674916    Uiso  ? Ni
   Ni90       1.0     0.677408     0.615185     0.557945    Uiso  ? Ni
   Ni91       1.0     0.787767     0.728763     0.557410    Uiso  ? Ni
   Ni92       1.0     0.674662     0.729236     0.672097    Uiso  ? Ni
   Ni93       1.0     0.787691     0.614278     0.672030    Uiso  ? Ni
   Ni94       1.0     0.899760     0.613909     0.557275    Uiso  ? Ni
   Ni95       1.0     0.445247     0.843320     0.557736    Uiso  ? Ni
   Ni96       1.0     0.560031     0.842956     0.672089    Uiso  ? Ni
   Ni97       1.0     0.674243     0.842701     0.557437    Uiso  ? Ni
   Ni98       1.0     0.330982     0.270660     0.786622    Uiso  ? Ni
   Ni99       1.0     0.560276     0.271021     0.786256    Uiso  ? Ni
   Ni100      1.0     0.787043     0.272002     0.785171    Uiso  ? Ni
   Ni101      1.0     0.330288     0.500438     0.787623    Uiso  ? Ni
   Ni102      1.0     0.445947     0.384774     0.789007    Uiso  ? Ni
   Ni103      1.0     0.561133     0.499716     0.787245    Uiso  ? Ni
   Ni104      1.0     0.445547     0.500061     0.899511    Uiso  ? Ni
   Ni105      1.0     0.560136     0.385704     0.899458    Uiso  ? Ni
   Ni106      1.0     0.674523     0.385497     0.786267    Uiso  ? Ni
   Ni107      1.0     0.787447     0.499901     0.785634    Uiso  ? Ni
   Ni108      1.0     0.673767     0.499971     0.899103    Uiso  ? Ni
   Ni109      1.0     0.330722     0.729265     0.786412    Uiso  ? Ni
   Ni110      1.0     0.445290     0.615346     0.788942    Uiso  ? Ni
   Ni111      1.0     0.560058     0.729222     0.786426    Uiso  ? Ni
   Ni112      1.0     0.559998     0.614262     0.899186    Uiso  ? Ni
   Ni113      1.0     0.674677     0.614368     0.786442    Uiso  ? Ni
   Ni114      1.0     0.787107     0.728041     0.785239    Uiso  ? Ni
   H1         1.0     0.446061     0.500061     0.558855    Uiso  ? H
   H2         1.0     0.215176     0.500002     0.327244    Uiso  ? H
   H3         1.0     0.215079     0.384243     0.442466    Uiso  ? H
   H4         1.0     0.446734     0.499405     0.325578    Uiso  ? H
   H5         1.0     0.446702     0.382679     0.441527    Uiso  ? H
   H6         1.0     0.563134     0.499441     0.442327    Uiso  ? H
   H7         1.0     0.330266     0.616011     0.327643    Uiso  ? H
   H8         1.0     0.445467     0.617268     0.442392    Uiso  ? H
   H9         1.0     0.330476     0.383888     0.558558    Uiso  ? H
   H10        1.0     0.215103     0.501623     0.559255    Uiso  ? H
   H11        1.0     0.446768     0.383950     0.674493    Uiso  ? H
   H12        1.0     0.562351     0.616083     0.558522    Uiso  ? H
   H13        1.0     0.444819     0.616172     0.674489    Uiso  ? H
