
#======================================================================
# CRYSTAL DATA
#----------------------------------------------------------------------
data_VESTA_phase_1

_chemical_name_common                  ' Ni H'
_cell_length_a                         15.515162
_cell_length_b                         15.515162
_cell_length_c                         15.515162
_cell_angle_alpha                      90.000000
_cell_angle_beta                       90.000000
_cell_angle_gamma                      90.000000
_cell_volume                           1.000000
_space_group_name_H-M_alt              'P 1'
_space_group_IT_number                 1

loop_
_space_group_symop_operation_xyz
   'x, y, z'

loop_
   _atom_site_label
   _atom_site_occupancy
   _atom_site_fract_x
   _atom_site_fract_y
   _atom_site_fract_z
   _atom_site_adp_type
   _atom_site_U_iso_or_equiv
   _atom_site_type_symbol
   Ni1        1.0     0.217046     0.271394     0.213320    Uiso  ? Ni
   Ni2        1.0     0.446138     0.271093     0.213112    Uiso  ? Ni
   Ni3        1.0     0.673716     0.272043     0.214066    Uiso  ? Ni
   Ni4        1.0     0.331606     0.500900     0.100625    Uiso  ? Ni
   Ni5        1.0     0.216623     0.500823     0.212652    Uiso  ? Ni
   Ni6        1.0     0.331465     0.385951     0.211080    Uiso  ? Ni
   Ni7        1.0     0.446119     0.386347     0.100732    Uiso  ? Ni
   Ni8        1.0     0.559774     0.500551     0.101127    Uiso  ? Ni
   Ni9        1.0     0.445994     0.501117     0.212854    Uiso  ? Ni
   Ni10       1.0     0.560830     0.385701     0.212796    Uiso  ? Ni
   Ni11       1.0     0.674307     0.500444     0.213522    Uiso  ? Ni
   Ni12       1.0     0.217327     0.729067     0.213550    Uiso  ? Ni
   Ni13       1.0     0.331609     0.615566     0.212955    Uiso  ? Ni
   Ni14       1.0     0.445781     0.614703     0.100924    Uiso  ? Ni
   Ni15       1.0     0.445765     0.729153     0.213586    Uiso  ? Ni
   Ni16       1.0     0.560181     0.615246     0.213489    Uiso  ? Ni
   Ni17       1.0     0.673600     0.728525     0.214173    Uiso  ? Ni
   Ni18       1.0     0.331384     0.268771     0.326397    Uiso  ? Ni
   Ni19       1.0     0.215751     0.268719     0.441874    Uiso  ? Ni
   Ni20       1.0     0.331292     0.156653     0.441872    Uiso  ? Ni
   Ni21       1.0     0.446155     0.157124     0.327253    Uiso  ? Ni
   Ni22       1.0     0.560902     0.270451     0.326728    Uiso  ? Ni
   Ni23       1.0     0.446772     0.267526     0.440970    Uiso  ? Ni
   Ni24       1.0     0.560652     0.157452     0.441812    Uiso  ? Ni
   Ni25       1.0     0.787153     0.272140     0.328001    Uiso  ? Ni
   Ni26       1.0     0.674967     0.270705     0.441624    Uiso  ? Ni
   Ni27       1.0     0.101856     0.500785     0.326717    Uiso  ? Ni
   Ni28       1.0     0.100000     0.385506     0.441865    Uiso  ? Ni
   Ni29       1.0     0.214432     0.385499     0.324694    Uiso  ? Ni
   Ni30       1.0     0.330755     0.502685     0.324780    Uiso  ? Ni
   Ni31       1.0     0.214493     0.500863     0.440348    Uiso  ? Ni
   Ni32       1.0     0.330693     0.383618     0.440606    Uiso  ? Ni
   Ni33       1.0     0.448135     0.384943     0.324112    Uiso  ? Ni
   Ni34       1.0     0.561422     0.500792     0.324234    Uiso  ? Ni
   Ni35       1.0     0.445335     0.502211     0.437709    Uiso  ? Ni
   Ni36       1.0     0.563634     0.382769     0.440219    Uiso  ? Ni
   Ni37       1.0     0.674766     0.385549     0.326710    Uiso  ? Ni
   Ni38       1.0     0.787791     0.500269     0.327290    Uiso  ? Ni
   Ni39       1.0     0.677417     0.500296     0.440463    Uiso  ? Ni
   Ni40       1.0     0.787626     0.385523     0.441656    Uiso  ? Ni
   Ni41       1.0     0.899889     0.500174     0.442023    Uiso  ? Ni
   Ni42       1.0     0.100260     0.615384     0.441536    Uiso  ? Ni
   Ni43       1.0     0.216140     0.615872     0.324632    Uiso  ? Ni
   Ni44       1.0     0.331451     0.730044     0.326278    Uiso  ? Ni
   Ni45       1.0     0.216366     0.731485     0.441305    Uiso  ? Ni
   Ni46       1.0     0.331855     0.617762     0.438275    Uiso  ? Ni
   Ni47       1.0     0.446271     0.616698     0.325134    Uiso  ? Ni
   Ni48       1.0     0.560218     0.729944     0.326556    Uiso  ? Ni
   Ni49       1.0     0.445970     0.731387     0.439972    Uiso  ? Ni
   Ni50       1.0     0.561531     0.617919     0.438374    Uiso  ? Ni
   Ni51       1.0     0.674827     0.615200     0.326717    Uiso  ? Ni
   Ni52       1.0     0.787261     0.728469     0.327950    Uiso  ? Ni
   Ni53       1.0     0.674726     0.729731     0.441248    Uiso  ? Ni
   Ni54       1.0     0.788127     0.614972     0.441356    Uiso  ? Ni
   Ni55       1.0     0.331463     0.843206     0.441234    Uiso  ? Ni
   Ni56       1.0     0.445652     0.842731     0.327311    Uiso  ? Ni
   Ni57       1.0     0.560002     0.842913     0.441236    Uiso  ? Ni
   Ni58       1.0     0.330467     0.267560     0.556947    Uiso  ? Ni
   Ni59       1.0     0.215637     0.270008     0.671664    Uiso  ? Ni
   Ni60       1.0     0.446194     0.157021     0.556432    Uiso  ? Ni
   Ni61       1.0     0.561877     0.269314     0.556303    Uiso  ? Ni
   Ni62       1.0     0.446100     0.267928     0.671948    Uiso  ? Ni
   Ni63       1.0     0.560448     0.157683     0.670700    Uiso  ? Ni
   Ni64       1.0     0.674204     0.157858     0.556199    Uiso  ? Ni
   Ni65       1.0     0.787606     0.271614     0.556113    Uiso  ? Ni
   Ni66       1.0     0.675065     0.270648     0.670748    Uiso  ? Ni
   Ni67       1.0     0.101424     0.500433     0.556825    Uiso  ? Ni
   Ni68       1.0     0.212943     0.384194     0.558674    Uiso  ? Ni
   Ni69       1.0     0.327870     0.500705     0.555205    Uiso  ? Ni
   Ni70       1.0     0.213100     0.500366     0.672741    Uiso  ? Ni
   Ni71       1.0     0.328361     0.382527     0.674141    Uiso  ? Ni
   Ni72       1.0     0.448058     0.381714     0.556473    Uiso  ? Ni
   Ni73       1.0     0.564039     0.498791     0.555701    Uiso  ? Ni
   Ni74       1.0     0.445677     0.500282     0.674403    Uiso  ? Ni
   Ni75       1.0     0.563642     0.382339     0.672446    Uiso  ? Ni
   Ni76       1.0     0.676208     0.384207     0.556176    Uiso  ? Ni
   Ni77       1.0     0.788148     0.499913     0.556040    Uiso  ? Ni
   Ni78       1.0     0.677572     0.499932     0.671614    Uiso  ? Ni
   Ni79       1.0     0.787770     0.385427     0.670541    Uiso  ? Ni
   Ni80       1.0     0.900000     0.386127     0.556071    Uiso  ? Ni
   Ni81       1.0     0.899861     0.500185     0.670117    Uiso  ? Ni
   Ni82       1.0     0.213427     0.616560     0.557984    Uiso  ? Ni
   Ni83       1.0     0.330371     0.732714     0.556019    Uiso  ? Ni
   Ni84       1.0     0.215727     0.730515     0.671449    Uiso  ? Ni
   Ni85       1.0     0.328246     0.618146     0.673960    Uiso  ? Ni
   Ni86       1.0     0.446080     0.618940     0.554377    Uiso  ? Ni
   Ni87       1.0     0.561158     0.732569     0.555732    Uiso  ? Ni
   Ni88       1.0     0.445618     0.732557     0.671736    Uiso  ? Ni
   Ni89       1.0     0.563143     0.617782     0.673390    Uiso  ? Ni
   Ni90       1.0     0.677311     0.615861     0.555738    Uiso  ? Ni
   Ni91       1.0     0.787813     0.729098     0.556001    Uiso  ? Ni
   Ni92       1.0     0.675047     0.729983     0.670763    Uiso  ? Ni
   Ni93       1.0     0.787928     0.614922     0.670677    Uiso  ? Ni
   Ni94       1.0     0.899877     0.614247     0.556078    Uiso  ? Ni
   Ni95       1.0     0.445628     0.843347     0.555764    Uiso  ? Ni
   Ni96       1.0     0.560190     0.843065     0.670767    Uiso  ? Ni
   Ni97       1.0     0.674243     0.842889     0.555985    Uiso  ? Ni
   Ni98       1.0     0.330798     0.270371     0.785966    Uiso  ? Ni
   Ni99       1.0     0.560433     0.270710     0.785618    Uiso  ? Ni
   Ni100      1.0     0.787278     0.272075     0.784251    Uiso  ? Ni
   Ni101      1.0     0.329599     0.500288     0.788690    Uiso  ? Ni
   Ni102      1.0     0.445888     0.384293     0.788423    Uiso  ? Ni
   Ni103      1.0     0.561425     0.499986     0.788251    Uiso  ? Ni
   Ni104      1.0     0.445507     0.500222     0.899375    Uiso  ? Ni
   Ni105      1.0     0.560281     0.385453     0.899054    Uiso  ? Ni
   Ni106      1.0     0.674969     0.385377     0.785577    Uiso  ? Ni
   Ni107      1.0     0.787848     0.500185     0.784896    Uiso  ? Ni
   Ni108      1.0     0.674321     0.500204     0.898727    Uiso  ? Ni
   Ni109      1.0     0.330699     0.730170     0.785995    Uiso  ? Ni
   Ni110      1.0     0.445572     0.616216     0.788627    Uiso  ? Ni
   Ni111      1.0     0.560270     0.729975     0.785785    Uiso  ? Ni
   Ni112      1.0     0.560240     0.614957     0.898906    Uiso  ? Ni
   Ni113      1.0     0.675067     0.614995     0.785725    Uiso  ? Ni
   Ni114      1.0     0.787258     0.728439     0.784232    Uiso  ? Ni
   H1         1.0     0.445630     0.500378     0.555282    Uiso  ? H
   H2         1.0     0.331242     0.386172     0.325194    Uiso  ? H
   H3         1.0     0.214606     0.385260     0.441761    Uiso  ? H
   H4         1.0     0.447409     0.383898     0.440354    Uiso  ? H
   H5         1.0     0.562155     0.500420     0.439277    Uiso  ? H
   H6         1.0     0.215681     0.615550     0.440766    Uiso  ? H
   H7         1.0     0.329826     0.383460     0.557214    Uiso  ? H
   H8         1.0     0.328380     0.500369     0.672980    Uiso  ? H
   H9         1.0     0.446398     0.383238     0.673035    Uiso  ? H
   H10        1.0     0.562615     0.499716     0.672469    Uiso  ? H
   H11        1.0     0.329838     0.617131     0.555824    Uiso  ? H
   H12        1.0     0.562317     0.616890     0.555554    Uiso  ? H
   H13        1.0     0.445767     0.617354     0.672774    Uiso  ? H
