
#======================================================================
# CRYSTAL DATA
#----------------------------------------------------------------------
data_VESTA_phase_1

_chemical_name_common                  ' Ni H'
_cell_length_a                         15.484519
_cell_length_b                         15.484519
_cell_length_c                         15.484519
_cell_angle_alpha                      90.000000
_cell_angle_beta                       90.000000
_cell_angle_gamma                      90.000000
_cell_volume                           1.000000
_space_group_name_H-M_alt              'P 1'
_space_group_IT_number                 1

loop_
_space_group_symop_operation_xyz
   'x, y, z'

loop_
   _atom_site_label
   _atom_site_occupancy
   _atom_site_fract_x
   _atom_site_fract_y
   _atom_site_fract_z
   _atom_site_adp_type
   _atom_site_U_iso_or_equiv
   _atom_site_type_symbol
   Ni1        1.0     0.216514     0.271566     0.213774    Uiso  ? Ni
   Ni2        1.0     0.444421     0.271327     0.213625    Uiso  ? Ni
   Ni3        1.0     0.672585     0.271548     0.213739    Uiso  ? Ni
   Ni4        1.0     0.330445     0.499712     0.100635    Uiso  ? Ni
   Ni5        1.0     0.216241     0.499692     0.213763    Uiso  ? Ni
   Ni6        1.0     0.330291     0.385379     0.213696    Uiso  ? Ni
   Ni7        1.0     0.444422     0.385718     0.100595    Uiso  ? Ni
   Ni8        1.0     0.558398     0.499724     0.100819    Uiso  ? Ni
   Ni9        1.0     0.444112     0.499641     0.213556    Uiso  ? Ni
   Ni10       1.0     0.558614     0.385029     0.213340    Uiso  ? Ni
   Ni11       1.0     0.673101     0.499640     0.213306    Uiso  ? Ni
   Ni12       1.0     0.216453     0.727928     0.213721    Uiso  ? Ni
   Ni13       1.0     0.330185     0.614014     0.213630    Uiso  ? Ni
   Ni14       1.0     0.444427     0.613714     0.100664    Uiso  ? Ni
   Ni15       1.0     0.444352     0.728157     0.213594    Uiso  ? Ni
   Ni16       1.0     0.558600     0.614272     0.213513    Uiso  ? Ni
   Ni17       1.0     0.672618     0.727927     0.213717    Uiso  ? Ni
   Ni18       1.0     0.330176     0.270891     0.326924    Uiso  ? Ni
   Ni19       1.0     0.215928     0.270604     0.440720    Uiso  ? Ni
   Ni20       1.0     0.330229     0.157348     0.441124    Uiso  ? Ni
   Ni21       1.0     0.444483     0.157445     0.327231    Uiso  ? Ni
   Ni22       1.0     0.558799     0.270639     0.326687    Uiso  ? Ni
   Ni23       1.0     0.444244     0.269726     0.440098    Uiso  ? Ni
   Ni24       1.0     0.558800     0.157612     0.441194    Uiso  ? Ni
   Ni25       1.0     0.786572     0.271499     0.327516    Uiso  ? Ni
   Ni26       1.0     0.673452     0.270649     0.441068    Uiso  ? Ni
   Ni27       1.0     0.102077     0.499716     0.326891    Uiso  ? Ni
   Ni28       1.0     0.102034     0.385120     0.440838    Uiso  ? Ni
   Ni29       1.0     0.215993     0.384954     0.326669    Uiso  ? Ni
   Ni30       1.0     0.329571     0.499615     0.325921    Uiso  ? Ni
   Ni31       1.0     0.215352     0.499652     0.438308    Uiso  ? Ni
   Ni32       1.0     0.329316     0.383726     0.439445    Uiso  ? Ni
   Ni33       1.0     0.444194     0.384345     0.326274    Uiso  ? Ni
   Ni34       1.0     0.559188     0.499358     0.324311    Uiso  ? Ni
   Ni35       1.0     0.442662     0.499297     0.437205    Uiso  ? Ni
   Ni36       1.0     0.559615     0.382237     0.439618    Uiso  ? Ni
   Ni37       1.0     0.673368     0.384926     0.326737    Uiso  ? Ni
   Ni38       1.0     0.787231     0.499604     0.326860    Uiso  ? Ni
   Ni39       1.0     0.676028     0.499293     0.440054    Uiso  ? Ni
   Ni40       1.0     0.787294     0.384908     0.441160    Uiso  ? Ni
   Ni41       1.0     0.899912     0.499628     0.441521    Uiso  ? Ni
   Ni42       1.0     0.102087     0.614331     0.440842    Uiso  ? Ni
   Ni43       1.0     0.215906     0.614447     0.326568    Uiso  ? Ni
   Ni44       1.0     0.330028     0.728628     0.326802    Uiso  ? Ni
   Ni45       1.0     0.215861     0.728912     0.440660    Uiso  ? Ni
   Ni46       1.0     0.328976     0.615544     0.439165    Uiso  ? Ni
   Ni47       1.0     0.443870     0.614906     0.326000    Uiso  ? Ni
   Ni48       1.0     0.558753     0.729050     0.326389    Uiso  ? Ni
   Ni49       1.0     0.443883     0.730020     0.439802    Uiso  ? Ni
   Ni50       1.0     0.559495     0.616598     0.438192    Uiso  ? Ni
   Ni51       1.0     0.673624     0.614317     0.326459    Uiso  ? Ni
   Ni52       1.0     0.786657     0.727986     0.327429    Uiso  ? Ni
   Ni53       1.0     0.673660     0.729011     0.440825    Uiso  ? Ni
   Ni54       1.0     0.787550     0.614306     0.440897    Uiso  ? Ni
   Ni55       1.0     0.330043     0.842335     0.441020    Uiso  ? Ni
   Ni56       1.0     0.444360     0.842220     0.327071    Uiso  ? Ni
   Ni57       1.0     0.558748     0.842398     0.440819    Uiso  ? Ni
   Ni58       1.0     0.329628     0.269487     0.554790    Uiso  ? Ni
   Ni59       1.0     0.215235     0.269980     0.670171    Uiso  ? Ni
   Ni60       1.0     0.444599     0.157293     0.555125    Uiso  ? Ni
   Ni61       1.0     0.559676     0.269651     0.555103    Uiso  ? Ni
   Ni62       1.0     0.444548     0.268020     0.670279    Uiso  ? Ni
   Ni63       1.0     0.559204     0.157287     0.669874    Uiso  ? Ni
   Ni64       1.0     0.672993     0.157491     0.555507    Uiso  ? Ni
   Ni65       1.0     0.787018     0.271013     0.555550    Uiso  ? Ni
   Ni66       1.0     0.673985     0.270166     0.670021    Uiso  ? Ni
   Ni67       1.0     0.100000     0.499739     0.555131    Uiso  ? Ni
   Ni68       1.0     0.214908     0.382633     0.554765    Uiso  ? Ni
   Ni69       1.0     0.328812     0.499345     0.552971    Uiso  ? Ni
   Ni70       1.0     0.213026     0.499687     0.672154    Uiso  ? Ni
   Ni71       1.0     0.327613     0.382086     0.670720    Uiso  ? Ni
   Ni72       1.0     0.444262     0.381429     0.552956    Uiso  ? Ni
   Ni73       1.0     0.561818     0.497701     0.554812    Uiso  ? Ni
   Ni74       1.0     0.444396     0.499442     0.672950    Uiso  ? Ni
   Ni75       1.0     0.561777     0.381761     0.671005    Uiso  ? Ni
   Ni76       1.0     0.674850     0.383714     0.555168    Uiso  ? Ni
   Ni77       1.0     0.787691     0.499292     0.555537    Uiso  ? Ni
   Ni78       1.0     0.676618     0.499289     0.670991    Uiso  ? Ni
   Ni79       1.0     0.787193     0.384785     0.670026    Uiso  ? Ni
   Ni80       1.0     0.900000     0.385452     0.555689    Uiso  ? Ni
   Ni81       1.0     0.899763     0.499626     0.669865    Uiso  ? Ni
   Ni82       1.0     0.215041     0.616730     0.554760    Uiso  ? Ni
   Ni83       1.0     0.329224     0.730302     0.554802    Uiso  ? Ni
   Ni84       1.0     0.215150     0.729572     0.670232    Uiso  ? Ni
   Ni85       1.0     0.327266     0.617308     0.671014    Uiso  ? Ni
   Ni86       1.0     0.442636     0.617633     0.552992    Uiso  ? Ni
   Ni87       1.0     0.559537     0.731628     0.555138    Uiso  ? Ni
   Ni88       1.0     0.444173     0.731691     0.670649    Uiso  ? Ni
   Ni89       1.0     0.561729     0.617216     0.672568    Uiso  ? Ni
   Ni90       1.0     0.676248     0.615088     0.555238    Uiso  ? Ni
   Ni91       1.0     0.787295     0.728658     0.555570    Uiso  ? Ni
   Ni92       1.0     0.674228     0.729540     0.670332    Uiso  ? Ni
   Ni93       1.0     0.787457     0.614429     0.670326    Uiso  ? Ni
   Ni94       1.0     0.899805     0.613817     0.555696    Uiso  ? Ni
   Ni95       1.0     0.444157     0.842713     0.555158    Uiso  ? Ni
   Ni96       1.0     0.559149     0.842705     0.670287    Uiso  ? Ni
   Ni97       1.0     0.673339     0.842500     0.555530    Uiso  ? Ni
   Ni98       1.0     0.329862     0.270268     0.784964    Uiso  ? Ni
   Ni99       1.0     0.559290     0.270195     0.785034    Uiso  ? Ni
   Ni100      1.0     0.786713     0.271343     0.783976    Uiso  ? Ni
   Ni101      1.0     0.328984     0.499679     0.787884    Uiso  ? Ni
   Ni102      1.0     0.444568     0.383775     0.787475    Uiso  ? Ni
   Ni103      1.0     0.560352     0.499393     0.787842    Uiso  ? Ni
   Ni104      1.0     0.444595     0.499665     0.899405    Uiso  ? Ni
   Ni105      1.0     0.559300     0.384814     0.898971    Uiso  ? Ni
   Ni106      1.0     0.673952     0.384738     0.785049    Uiso  ? Ni
   Ni107      1.0     0.787320     0.499601     0.784662    Uiso  ? Ni
   Ni108      1.0     0.673602     0.499642     0.898700    Uiso  ? Ni
   Ni109      1.0     0.329708     0.729292     0.785119    Uiso  ? Ni
   Ni110      1.0     0.444287     0.615583     0.787797    Uiso  ? Ni
   Ni111      1.0     0.559267     0.729551     0.785412    Uiso  ? Ni
   Ni112      1.0     0.559307     0.614519     0.898832    Uiso  ? Ni
   Ni113      1.0     0.674247     0.614523     0.785384    Uiso  ? Ni
   Ni114      1.0     0.786822     0.728160     0.784096    Uiso  ? Ni
   H1         1.0     0.444022     0.499107     0.553880    Uiso  ? H
   H2         1.0     0.559924     0.498892     0.438775    Uiso  ? H
   H3         1.0     0.214046     0.499716     0.554668    Uiso  ? H
   H4         1.0     0.328103     0.499681     0.671623    Uiso  ? H
   H5         1.0     0.444696     0.382572     0.670484    Uiso  ? H
   H6         1.0     0.561617     0.499146     0.672001    Uiso  ? H
   H7         1.0     0.560442     0.616053     0.554930    Uiso  ? H
   H8         1.0     0.444032     0.616672     0.671216    Uiso  ? H
