
#======================================================================
# CRYSTAL DATA
#----------------------------------------------------------------------
data_VESTA_phase_1

_chemical_name_common                  ' Ni H'
_cell_length_a                         15.511937
_cell_length_b                         15.511937
_cell_length_c                         15.511937
_cell_angle_alpha                      90.000000
_cell_angle_beta                       90.000000
_cell_angle_gamma                      90.000000
_cell_volume                           1.000000
_space_group_name_H-M_alt              'P 1'
_space_group_IT_number                 1

loop_
_space_group_symop_operation_xyz
   'x, y, z'

loop_
   _atom_site_label
   _atom_site_occupancy
   _atom_site_fract_x
   _atom_site_fract_y
   _atom_site_fract_z
   _atom_site_adp_type
   _atom_site_U_iso_or_equiv
   _atom_site_type_symbol
   Ni1        1.0     0.217045     0.270673     0.214053    Uiso  ? Ni
   Ni2        1.0     0.445673     0.270410     0.213814    Uiso  ? Ni
   Ni3        1.0     0.673633     0.271599     0.214948    Uiso  ? Ni
   Ni4        1.0     0.331427     0.499668     0.100393    Uiso  ? Ni
   Ni5        1.0     0.216237     0.499645     0.211540    Uiso  ? Ni
   Ni6        1.0     0.331184     0.384266     0.212852    Uiso  ? Ni
   Ni7        1.0     0.445795     0.385245     0.101114    Uiso  ? Ni
   Ni8        1.0     0.560187     0.499982     0.101219    Uiso  ? Ni
   Ni9        1.0     0.446230     0.499971     0.211435    Uiso  ? Ni
   Ni10       1.0     0.560603     0.384910     0.213802    Uiso  ? Ni
   Ni11       1.0     0.674494     0.500118     0.214113    Uiso  ? Ni
   Ni12       1.0     0.216957     0.729431     0.214014    Uiso  ? Ni
   Ni13       1.0     0.331628     0.615256     0.211912    Uiso  ? Ni
   Ni14       1.0     0.446082     0.614693     0.100669    Uiso  ? Ni
   Ni15       1.0     0.446064     0.729497     0.214051    Uiso  ? Ni
   Ni16       1.0     0.560650     0.615230     0.213722    Uiso  ? Ni
   Ni17       1.0     0.673574     0.728414     0.215024    Uiso  ? Ni
   Ni18       1.0     0.331088     0.269645     0.327745    Uiso  ? Ni
   Ni19       1.0     0.216260     0.268418     0.443388    Uiso  ? Ni
   Ni20       1.0     0.331025     0.156977     0.443034    Uiso  ? Ni
   Ni21       1.0     0.445525     0.157363     0.328330    Uiso  ? Ni
   Ni22       1.0     0.560538     0.269811     0.327640    Uiso  ? Ni
   Ni23       1.0     0.445481     0.267515     0.442570    Uiso  ? Ni
   Ni24       1.0     0.560023     0.157131     0.442700    Uiso  ? Ni
   Ni25       1.0     0.787158     0.271720     0.328946    Uiso  ? Ni
   Ni26       1.0     0.674765     0.270349     0.442636    Uiso  ? Ni
   Ni27       1.0     0.100097     0.499664     0.328179    Uiso  ? Ni
   Ni28       1.0     0.100402     0.384659     0.443593    Uiso  ? Ni
   Ni29       1.0     0.215799     0.382470     0.326236    Uiso  ? Ni
   Ni30       1.0     0.330742     0.498356     0.326674    Uiso  ? Ni
   Ni31       1.0     0.214679     0.499958     0.444738    Uiso  ? Ni
   Ni32       1.0     0.330431     0.382563     0.442870    Uiso  ? Ni
   Ni33       1.0     0.446107     0.382186     0.325311    Uiso  ? Ni
   Ni34       1.0     0.562887     0.500389     0.325642    Uiso  ? Ni
   Ni35       1.0     0.444943     0.501657     0.442233    Uiso  ? Ni
   Ni36       1.0     0.562525     0.382691     0.440710    Uiso  ? Ni
   Ni37       1.0     0.675109     0.384971     0.327692    Uiso  ? Ni
   Ni38       1.0     0.787464     0.500197     0.328323    Uiso  ? Ni
   Ni39       1.0     0.677402     0.500697     0.442083    Uiso  ? Ni
   Ni40       1.0     0.787746     0.385429     0.442568    Uiso  ? Ni
   Ni41       1.0     0.899738     0.500121     0.442960    Uiso  ? Ni
   Ni42       1.0     0.100000     0.615239     0.443772    Uiso  ? Ni
   Ni43       1.0     0.214629     0.617021     0.326599    Uiso  ? Ni
   Ni44       1.0     0.331551     0.731782     0.328265    Uiso  ? Ni
   Ni45       1.0     0.216230     0.731590     0.443676    Uiso  ? Ni
   Ni46       1.0     0.331916     0.617570     0.444488    Uiso  ? Ni
   Ni47       1.0     0.448079     0.617825     0.327324    Uiso  ? Ni
   Ni48       1.0     0.560771     0.730074     0.328212    Uiso  ? Ni
   Ni49       1.0     0.446292     0.731170     0.442807    Uiso  ? Ni
   Ni50       1.0     0.561778     0.618292     0.442209    Uiso  ? Ni
   Ni51       1.0     0.674529     0.615324     0.328209    Uiso  ? Ni
   Ni52       1.0     0.787044     0.728286     0.329029    Uiso  ? Ni
   Ni53       1.0     0.674477     0.729389     0.442829    Uiso  ? Ni
   Ni54       1.0     0.787701     0.614955     0.442742    Uiso  ? Ni
   Ni55       1.0     0.331515     0.843023     0.443369    Uiso  ? Ni
   Ni56       1.0     0.446067     0.842647     0.328770    Uiso  ? Ni
   Ni57       1.0     0.560040     0.842327     0.442996    Uiso  ? Ni
   Ni58       1.0     0.330181     0.269027     0.558182    Uiso  ? Ni
   Ni59       1.0     0.216302     0.270282     0.672342    Uiso  ? Ni
   Ni60       1.0     0.445098     0.157126     0.557813    Uiso  ? Ni
   Ni61       1.0     0.560404     0.268149     0.557684    Uiso  ? Ni
   Ni62       1.0     0.445062     0.269509     0.672957    Uiso  ? Ni
   Ni63       1.0     0.559554     0.157609     0.671879    Uiso  ? Ni
   Ni64       1.0     0.673900     0.157541     0.557245    Uiso  ? Ni
   Ni65       1.0     0.787627     0.271275     0.557150    Uiso  ? Ni
   Ni66       1.0     0.674414     0.270710     0.671824    Uiso  ? Ni
   Ni67       1.0     0.101650     0.499883     0.558484    Uiso  ? Ni
   Ni68       1.0     0.215545     0.383804     0.560232    Uiso  ? Ni
   Ni69       1.0     0.328132     0.499989     0.557364    Uiso  ? Ni
   Ni70       1.0     0.213849     0.499724     0.672940    Uiso  ? Ni
   Ni71       1.0     0.329606     0.382351     0.673496    Uiso  ? Ni
   Ni72       1.0     0.443769     0.381831     0.559582    Uiso  ? Ni
   Ni73       1.0     0.563194     0.501978     0.557568    Uiso  ? Ni
   Ni74       1.0     0.445068     0.498667     0.674823    Uiso  ? Ni
   Ni75       1.0     0.560980     0.382533     0.674538    Uiso  ? Ni
   Ni76       1.0     0.676934     0.384626     0.557504    Uiso  ? Ni
   Ni77       1.0     0.788080     0.500444     0.557197    Uiso  ? Ni
   Ni78       1.0     0.677019     0.500158     0.672567    Uiso  ? Ni
   Ni79       1.0     0.787931     0.385413     0.671717    Uiso  ? Ni
   Ni80       1.0     0.899813     0.386057     0.557019    Uiso  ? Ni
   Ni81       1.0     0.899871     0.500127     0.671066    Uiso  ? Ni
   Ni82       1.0     0.215093     0.616146     0.560030    Uiso  ? Ni
   Ni83       1.0     0.330637     0.730989     0.557891    Uiso  ? Ni
   Ni84       1.0     0.216155     0.729852     0.672182    Uiso  ? Ni
   Ni85       1.0     0.328828     0.617184     0.672642    Uiso  ? Ni
   Ni86       1.0     0.446007     0.618673     0.556688    Uiso  ? Ni
   Ni87       1.0     0.560859     0.730361     0.557183    Uiso  ? Ni
   Ni88       1.0     0.445553     0.731856     0.672177    Uiso  ? Ni
   Ni89       1.0     0.562514     0.617638     0.672745    Uiso  ? Ni
   Ni90       1.0     0.675708     0.616089     0.557057    Uiso  ? Ni
   Ni91       1.0     0.787423     0.728611     0.557078    Uiso  ? Ni
   Ni92       1.0     0.674542     0.729379     0.671488    Uiso  ? Ni
   Ni93       1.0     0.787493     0.614767     0.671388    Uiso  ? Ni
   Ni94       1.0     0.900000     0.614182     0.557039    Uiso  ? Ni
   Ni95       1.0     0.445694     0.842631     0.557161    Uiso  ? Ni
   Ni96       1.0     0.560017     0.842360     0.671395    Uiso  ? Ni
   Ni97       1.0     0.673735     0.842143     0.557114    Uiso  ? Ni
   Ni98       1.0     0.330831     0.270805     0.786102    Uiso  ? Ni
   Ni99       1.0     0.559624     0.270668     0.786290    Uiso  ? Ni
   Ni100      1.0     0.787014     0.271931     0.785060    Uiso  ? Ni
   Ni101      1.0     0.329885     0.499690     0.788501    Uiso  ? Ni
   Ni102      1.0     0.445020     0.384146     0.787177    Uiso  ? Ni
   Ni103      1.0     0.560611     0.499976     0.788694    Uiso  ? Ni
   Ni104      1.0     0.445189     0.499632     0.899607    Uiso  ? Ni
   Ni105      1.0     0.559482     0.385320     0.899091    Uiso  ? Ni
   Ni106      1.0     0.674383     0.385323     0.786187    Uiso  ? Ni
   Ni107      1.0     0.787593     0.500072     0.785677    Uiso  ? Ni
   Ni108      1.0     0.673849     0.499980     0.899270    Uiso  ? Ni
   Ni109      1.0     0.330793     0.729262     0.786055    Uiso  ? Ni
   Ni110      1.0     0.445355     0.615453     0.788482    Uiso  ? Ni
   Ni111      1.0     0.559943     0.729302     0.786155    Uiso  ? Ni
   Ni112      1.0     0.559803     0.614613     0.899570    Uiso  ? Ni
   Ni113      1.0     0.674383     0.614740     0.786125    Uiso  ? Ni
   Ni114      1.0     0.786961     0.728086     0.785000    Uiso  ? Ni
   H1         1.0     0.444434     0.500769     0.557331    Uiso  ? H
   H2         1.0     0.215230     0.499334     0.327210    Uiso  ? H
   H3         1.0     0.215930     0.384180     0.443954    Uiso  ? H
   H4         1.0     0.446571     0.499801     0.325958    Uiso  ? H
   H5         1.0     0.445178     0.383470     0.441949    Uiso  ? H
   H6         1.0     0.562456     0.501439     0.441557    Uiso  ? H
   H7         1.0     0.331915     0.615845     0.328004    Uiso  ? H
   H8         1.0     0.215836     0.615727     0.444478    Uiso  ? H
   H9         1.0     0.328637     0.499242     0.673130    Uiso  ? H
   H10        1.0     0.561201     0.383793     0.558046    Uiso  ? H
   H11        1.0     0.561793     0.500080     0.673918    Uiso  ? H
   H12        1.0     0.445564     0.616584     0.673018    Uiso  ? H
