
#======================================================================
# CRYSTAL DATA
#----------------------------------------------------------------------
data_VESTA_phase_1

_chemical_name_common                  ' Ni H'
_cell_length_a                         15.519581
_cell_length_b                         15.519581
_cell_length_c                         15.519581
_cell_angle_alpha                      90.000000
_cell_angle_beta                       90.000000
_cell_angle_gamma                      90.000000
_cell_volume                           1.000000
_space_group_name_H-M_alt              'P 1'
_space_group_IT_number                 1

loop_
_space_group_symop_operation_xyz
   'x, y, z'

loop_
   _atom_site_label
   _atom_site_occupancy
   _atom_site_fract_x
   _atom_site_fract_y
   _atom_site_fract_z
   _atom_site_adp_type
   _atom_site_U_iso_or_equiv
   _atom_site_type_symbol
   Ni1        1.0     0.217392     0.270589     0.214193    Uiso  ? Ni
   Ni2        1.0     0.446196     0.270270     0.213874    Uiso  ? Ni
   Ni3        1.0     0.673957     0.271531     0.215130    Uiso  ? Ni
   Ni4        1.0     0.331651     0.499570     0.100695    Uiso  ? Ni
   Ni5        1.0     0.216400     0.499905     0.211843    Uiso  ? Ni
   Ni6        1.0     0.331621     0.384128     0.213086    Uiso  ? Ni
   Ni7        1.0     0.446108     0.385062     0.101240    Uiso  ? Ni
   Ni8        1.0     0.560558     0.499839     0.101354    Uiso  ? Ni
   Ni9        1.0     0.446649     0.499540     0.211235    Uiso  ? Ni
   Ni10       1.0     0.561127     0.384586     0.213608    Uiso  ? Ni
   Ni11       1.0     0.674930     0.499766     0.214119    Uiso  ? Ni
   Ni12       1.0     0.217013     0.729263     0.214293    Uiso  ? Ni
   Ni13       1.0     0.331211     0.615317     0.211793    Uiso  ? Ni
   Ni14       1.0     0.446296     0.614600     0.101093    Uiso  ? Ni
   Ni15       1.0     0.446184     0.729743     0.213816    Uiso  ? Ni
   Ni16       1.0     0.561248     0.614957     0.213693    Uiso  ? Ni
   Ni17       1.0     0.673980     0.728317     0.215103    Uiso  ? Ni
   Ni18       1.0     0.331644     0.269238     0.327436    Uiso  ? Ni
   Ni19       1.0     0.216349     0.267904     0.442938    Uiso  ? Ni
   Ni20       1.0     0.331718     0.156839     0.442899    Uiso  ? Ni
   Ni21       1.0     0.446182     0.157434     0.328508    Uiso  ? Ni
   Ni22       1.0     0.561163     0.269966     0.328080    Uiso  ? Ni
   Ni23       1.0     0.446821     0.267423     0.442754    Uiso  ? Ni
   Ni24       1.0     0.560687     0.157537     0.443273    Uiso  ? Ni
   Ni25       1.0     0.787293     0.271691     0.329282    Uiso  ? Ni
   Ni26       1.0     0.674991     0.270449     0.443211    Uiso  ? Ni
   Ni27       1.0     0.100296     0.500083     0.328082    Uiso  ? Ni
   Ni28       1.0     0.100374     0.384720     0.443011    Uiso  ? Ni
   Ni29       1.0     0.215896     0.382526     0.325892    Uiso  ? Ni
   Ni30       1.0     0.330956     0.498543     0.326029    Uiso  ? Ni
   Ni31       1.0     0.214455     0.501878     0.442796    Uiso  ? Ni
   Ni32       1.0     0.331043     0.382019     0.441180    Uiso  ? Ni
   Ni33       1.0     0.447189     0.381734     0.325188    Uiso  ? Ni
   Ni34       1.0     0.563628     0.499272     0.325475    Uiso  ? Ni
   Ni35       1.0     0.446099     0.499648     0.442241    Uiso  ? Ni
   Ni36       1.0     0.563672     0.381987     0.442555    Uiso  ? Ni
   Ni37       1.0     0.675288     0.384597     0.328124    Uiso  ? Ni
   Ni38       1.0     0.787587     0.499746     0.328608    Uiso  ? Ni
   Ni39       1.0     0.677732     0.499380     0.442728    Uiso  ? Ni
   Ni40       1.0     0.787578     0.385048     0.443262    Uiso  ? Ni
   Ni41       1.0     0.899595     0.499770     0.443363    Uiso  ? Ni
   Ni42       1.0     0.101761     0.615876     0.443463    Uiso  ? Ni
   Ni43       1.0     0.214262     0.617459     0.327652    Uiso  ? Ni
   Ni44       1.0     0.330993     0.731910     0.328100    Uiso  ? Ni
   Ni45       1.0     0.215787     0.730599     0.443362    Uiso  ? Ni
   Ni46       1.0     0.328478     0.618175     0.443838    Uiso  ? Ni
   Ni47       1.0     0.447739     0.617611     0.325523    Uiso  ? Ni
   Ni48       1.0     0.561266     0.730302     0.327846    Uiso  ? Ni
   Ni49       1.0     0.445888     0.732704     0.442658    Uiso  ? Ni
   Ni50       1.0     0.563809     0.617367     0.441164    Uiso  ? Ni
   Ni51       1.0     0.675458     0.614884     0.327793    Uiso  ? Ni
   Ni52       1.0     0.787369     0.728135     0.329134    Uiso  ? Ni
   Ni53       1.0     0.675346     0.729642     0.442872    Uiso  ? Ni
   Ni54       1.0     0.787911     0.614436     0.442836    Uiso  ? Ni
   Ni55       1.0     0.330904     0.843020     0.443386    Uiso  ? Ni
   Ni56       1.0     0.446104     0.842904     0.328500    Uiso  ? Ni
   Ni57       1.0     0.560520     0.842818     0.442891    Uiso  ? Ni
   Ni58       1.0     0.331529     0.267486     0.558392    Uiso  ? Ni
   Ni59       1.0     0.216657     0.269908     0.672938    Uiso  ? Ni
   Ni60       1.0     0.446537     0.157252     0.558047    Uiso  ? Ni
   Ni61       1.0     0.561647     0.269680     0.558298    Uiso  ? Ni
   Ni62       1.0     0.446762     0.269665     0.673311    Uiso  ? Ni
   Ni63       1.0     0.560231     0.157838     0.671806    Uiso  ? Ni
   Ni64       1.0     0.674017     0.157894     0.557533    Uiso  ? Ni
   Ni65       1.0     0.787400     0.271541     0.557502    Uiso  ? Ni
   Ni66       1.0     0.674320     0.271159     0.671899    Uiso  ? Ni
   Ni67       1.0     0.100000     0.500633     0.558270    Uiso  ? Ni
   Ni68       1.0     0.214206     0.382613     0.559978    Uiso  ? Ni
   Ni69       1.0     0.330370     0.501214     0.558037    Uiso  ? Ni
   Ni70       1.0     0.214092     0.500290     0.674982    Uiso  ? Ni
   Ni71       1.0     0.331255     0.382329     0.675354    Uiso  ? Ni
   Ni72       1.0     0.448549     0.381088     0.560250    Uiso  ? Ni
   Ni73       1.0     0.564314     0.497808     0.560030    Uiso  ? Ni
   Ni74       1.0     0.448143     0.497916     0.675890    Uiso  ? Ni
   Ni75       1.0     0.562125     0.383526     0.673769    Uiso  ? Ni
   Ni76       1.0     0.675579     0.384082     0.558251    Uiso  ? Ni
   Ni77       1.0     0.787809     0.499335     0.557923    Uiso  ? Ni
   Ni78       1.0     0.675577     0.499123     0.673109    Uiso  ? Ni
   Ni79       1.0     0.787407     0.385432     0.671697    Uiso  ? Ni
   Ni80       1.0     0.899970     0.385840     0.557322    Uiso  ? Ni
   Ni81       1.0     0.900000     0.499773     0.671237    Uiso  ? Ni
   Ni82       1.0     0.214876     0.618249     0.558547    Uiso  ? Ni
   Ni83       1.0     0.330163     0.731468     0.558082    Uiso  ? Ni
   Ni84       1.0     0.216268     0.729980     0.672475    Uiso  ? Ni
   Ni85       1.0     0.328815     0.617553     0.673795    Uiso  ? Ni
   Ni86       1.0     0.445125     0.618536     0.558658    Uiso  ? Ni
   Ni87       1.0     0.561414     0.731924     0.557923    Uiso  ? Ni
   Ni88       1.0     0.445796     0.731987     0.673118    Uiso  ? Ni
   Ni89       1.0     0.563081     0.615214     0.674841    Uiso  ? Ni
   Ni90       1.0     0.677489     0.614912     0.557979    Uiso  ? Ni
   Ni91       1.0     0.787781     0.728521     0.557438    Uiso  ? Ni
   Ni92       1.0     0.674760     0.729012     0.672045    Uiso  ? Ni
   Ni93       1.0     0.787591     0.613962     0.672001    Uiso  ? Ni
   Ni94       1.0     0.899696     0.613709     0.557316    Uiso  ? Ni
   Ni95       1.0     0.445546     0.843161     0.557667    Uiso  ? Ni
   Ni96       1.0     0.560304     0.842817     0.672019    Uiso  ? Ni
   Ni97       1.0     0.674383     0.842487     0.557427    Uiso  ? Ni
   Ni98       1.0     0.331675     0.270531     0.786546    Uiso  ? Ni
   Ni99       1.0     0.560323     0.271161     0.785938    Uiso  ? Ni
   Ni100      1.0     0.787033     0.272039     0.785027    Uiso  ? Ni
   Ni101      1.0     0.331084     0.499815     0.789037    Uiso  ? Ni
   Ni102      1.0     0.446691     0.384161     0.787214    Uiso  ? Ni
   Ni103      1.0     0.561427     0.499162     0.787115    Uiso  ? Ni
   Ni104      1.0     0.446257     0.499446     0.899305    Uiso  ? Ni
   Ni105      1.0     0.560101     0.385480     0.898986    Uiso  ? Ni
   Ni106      1.0     0.674280     0.385307     0.785883    Uiso  ? Ni
   Ni107      1.0     0.787375     0.499684     0.785472    Uiso  ? Ni
   Ni108      1.0     0.673845     0.499716     0.898920    Uiso  ? Ni
   Ni109      1.0     0.331095     0.729361     0.786534    Uiso  ? Ni
   Ni110      1.0     0.445921     0.614977     0.788726    Uiso  ? Ni
   Ni111      1.0     0.560309     0.729014     0.786295    Uiso  ? Ni
   Ni112      1.0     0.560247     0.613989     0.899006    Uiso  ? Ni
   Ni113      1.0     0.674743     0.614086     0.786328    Uiso  ? Ni
   Ni114      1.0     0.787119     0.727791     0.785123    Uiso  ? Ni
   H1         1.0     0.447104     0.499207     0.559032    Uiso  ? H
   H2         1.0     0.215470     0.499905     0.327127    Uiso  ? H
   H3         1.0     0.215633     0.384169     0.442542    Uiso  ? H
   H4         1.0     0.446968     0.499225     0.325744    Uiso  ? H
   H5         1.0     0.447033     0.382595     0.442224    Uiso  ? H
   H6         1.0     0.563551     0.499348     0.442277    Uiso  ? H
   H7         1.0     0.330541     0.615874     0.327552    Uiso  ? H
   H8         1.0     0.445636     0.616870     0.442575    Uiso  ? H
   H9         1.0     0.331326     0.383210     0.558680    Uiso  ? H
   H10        1.0     0.214831     0.501496     0.558410    Uiso  ? H
   H11        1.0     0.330615     0.499841     0.674887    Uiso  ? H
   H12        1.0     0.562718     0.615777     0.558440    Uiso  ? H
   H13        1.0     0.445910     0.615911     0.674420    Uiso  ? H
