
#======================================================================
# CRYSTAL DATA
#----------------------------------------------------------------------
data_VESTA_phase_1

_chemical_name_common                  ' Ni H'
_cell_length_a                         15.526351
_cell_length_b                         15.526351
_cell_length_c                         15.526351
_cell_angle_alpha                      90.000000
_cell_angle_beta                       90.000000
_cell_angle_gamma                      90.000000
_cell_volume                           1.000000
_space_group_name_H-M_alt              'P 1'
_space_group_IT_number                 1

loop_
_space_group_symop_operation_xyz
   'x, y, z'

loop_
   _atom_site_label
   _atom_site_occupancy
   _atom_site_fract_x
   _atom_site_fract_y
   _atom_site_fract_z
   _atom_site_adp_type
   _atom_site_U_iso_or_equiv
   _atom_site_type_symbol
   Ni1        1.0     0.217341     0.270491     0.214299    Uiso  ? Ni
   Ni2        1.0     0.446083     0.270113     0.213927    Uiso  ? Ni
   Ni3        1.0     0.673953     0.271406     0.215194    Uiso  ? Ni
   Ni4        1.0     0.331638     0.499451     0.100915    Uiso  ? Ni
   Ni5        1.0     0.216329     0.499741     0.211944    Uiso  ? Ni
   Ni6        1.0     0.331485     0.383912     0.213023    Uiso  ? Ni
   Ni7        1.0     0.446098     0.384955     0.101462    Uiso  ? Ni
   Ni8        1.0     0.560550     0.499725     0.101569    Uiso  ? Ni
   Ni9        1.0     0.446652     0.499431     0.211294    Uiso  ? Ni
   Ni10       1.0     0.561081     0.384502     0.213807    Uiso  ? Ni
   Ni11       1.0     0.674957     0.499729     0.214174    Uiso  ? Ni
   Ni12       1.0     0.216999     0.729136     0.214384    Uiso  ? Ni
   Ni13       1.0     0.331212     0.615206     0.211850    Uiso  ? Ni
   Ni14       1.0     0.446300     0.614487     0.101292    Uiso  ? Ni
   Ni15       1.0     0.446223     0.729687     0.213851    Uiso  ? Ni
   Ni16       1.0     0.561335     0.614950     0.213647    Uiso  ? Ni
   Ni17       1.0     0.674019     0.728267     0.215131    Uiso  ? Ni
   Ni18       1.0     0.331448     0.269106     0.327437    Uiso  ? Ni
   Ni19       1.0     0.216252     0.267778     0.443085    Uiso  ? Ni
   Ni20       1.0     0.331481     0.156735     0.443023    Uiso  ? Ni
   Ni21       1.0     0.445988     0.157262     0.328488    Uiso  ? Ni
   Ni22       1.0     0.561046     0.269566     0.327750    Uiso  ? Ni
   Ni23       1.0     0.446288     0.267091     0.442529    Uiso  ? Ni
   Ni24       1.0     0.560529     0.157107     0.443006    Uiso  ? Ni
   Ni25       1.0     0.787349     0.271555     0.329245    Uiso  ? Ni
   Ni26       1.0     0.675219     0.270088     0.442970    Uiso  ? Ni
   Ni27       1.0     0.100386     0.499875     0.328231    Uiso  ? Ni
   Ni28       1.0     0.100409     0.384535     0.443221    Uiso  ? Ni
   Ni29       1.0     0.215808     0.382391     0.325949    Uiso  ? Ni
   Ni30       1.0     0.330874     0.498165     0.325605    Uiso  ? Ni
   Ni31       1.0     0.214429     0.501366     0.443152    Uiso  ? Ni
   Ni32       1.0     0.330607     0.381824     0.441200    Uiso  ? Ni
   Ni33       1.0     0.446799     0.381596     0.324941    Uiso  ? Ni
   Ni34       1.0     0.563582     0.499486     0.325273    Uiso  ? Ni
   Ni35       1.0     0.445698     0.499554     0.442220    Uiso  ? Ni
   Ni36       1.0     0.563501     0.381960     0.440905    Uiso  ? Ni
   Ni37       1.0     0.675564     0.384563     0.327788    Uiso  ? Ni
   Ni38       1.0     0.787681     0.499774     0.328553    Uiso  ? Ni
   Ni39       1.0     0.677942     0.499704     0.442460    Uiso  ? Ni
   Ni40       1.0     0.787948     0.385039     0.442943    Uiso  ? Ni
   Ni41       1.0     0.899588     0.499802     0.443365    Uiso  ? Ni
   Ni42       1.0     0.101562     0.615609     0.443385    Uiso  ? Ni
   Ni43       1.0     0.214044     0.617232     0.327429    Uiso  ? Ni
   Ni44       1.0     0.331014     0.731965     0.327856    Uiso  ? Ni
   Ni45       1.0     0.215527     0.730624     0.443277    Uiso  ? Ni
   Ni46       1.0     0.328513     0.617778     0.442530    Uiso  ? Ni
   Ni47       1.0     0.447963     0.617527     0.325235    Uiso  ? Ni
   Ni48       1.0     0.561377     0.730335     0.327721    Uiso  ? Ni
   Ni49       1.0     0.446221     0.732851     0.442420    Uiso  ? Ni
   Ni50       1.0     0.564135     0.617642     0.440786    Uiso  ? Ni
   Ni51       1.0     0.675589     0.614930     0.327661    Uiso  ? Ni
   Ni52       1.0     0.787378     0.728093     0.329162    Uiso  ? Ni
   Ni53       1.0     0.675471     0.729690     0.442860    Uiso  ? Ni
   Ni54       1.0     0.787982     0.614528     0.442829    Uiso  ? Ni
   Ni55       1.0     0.330934     0.843122     0.443229    Uiso  ? Ni
   Ni56       1.0     0.446168     0.842857     0.328469    Uiso  ? Ni
   Ni57       1.0     0.560655     0.842767     0.442907    Uiso  ? Ni
   Ni58       1.0     0.330928     0.267280     0.558860    Uiso  ? Ni
   Ni59       1.0     0.216768     0.270023     0.673249    Uiso  ? Ni
   Ni60       1.0     0.445952     0.156847     0.558207    Uiso  ? Ni
   Ni61       1.0     0.561331     0.267814     0.558410    Uiso  ? Ni
   Ni62       1.0     0.445940     0.269492     0.673933    Uiso  ? Ni
   Ni63       1.0     0.559981     0.157449     0.672292    Uiso  ? Ni
   Ni64       1.0     0.674261     0.157453     0.557633    Uiso  ? Ni
   Ni65       1.0     0.787777     0.271117     0.557580    Uiso  ? Ni
   Ni66       1.0     0.674439     0.270918     0.672299    Uiso  ? Ni
   Ni67       1.0     0.100000     0.500129     0.558790    Uiso  ? Ni
   Ni68       1.0     0.214101     0.382330     0.560526    Uiso  ? Ni
   Ni69       1.0     0.329966     0.499544     0.560608    Uiso  ? Ni
   Ni70       1.0     0.215347     0.499725     0.675690    Uiso  ? Ni
   Ni71       1.0     0.330593     0.383425     0.676255    Uiso  ? Ni
   Ni72       1.0     0.446369     0.380909     0.560869    Uiso  ? Ni
   Ni73       1.0     0.564203     0.499505     0.560514    Uiso  ? Ni
   Ni74       1.0     0.446184     0.497847     0.676794    Uiso  ? Ni
   Ni75       1.0     0.561596     0.383774     0.675682    Uiso  ? Ni
   Ni76       1.0     0.677452     0.384174     0.558319    Uiso  ? Ni
   Ni77       1.0     0.788216     0.499723     0.557984    Uiso  ? Ni
   Ni78       1.0     0.676011     0.499419     0.673652    Uiso  ? Ni
   Ni79       1.0     0.787844     0.385400     0.672179    Uiso  ? Ni
   Ni80       1.0     0.899797     0.385799     0.557393    Uiso  ? Ni
   Ni81       1.0     0.900000     0.499801     0.671391    Uiso  ? Ni
   Ni82       1.0     0.213390     0.617683     0.559101    Uiso  ? Ni
   Ni83       1.0     0.330123     0.732658     0.558450    Uiso  ? Ni
   Ni84       1.0     0.216308     0.729694     0.672943    Uiso  ? Ni
   Ni85       1.0     0.328796     0.615743     0.675818    Uiso  ? Ni
   Ni86       1.0     0.446288     0.618470     0.559068    Uiso  ? Ni
   Ni87       1.0     0.561755     0.732125     0.558061    Uiso  ? Ni
   Ni88       1.0     0.445800     0.731805     0.673658    Uiso  ? Ni
   Ni89       1.0     0.563033     0.615305     0.675568    Uiso  ? Ni
   Ni90       1.0     0.677799     0.615301     0.558125    Uiso  ? Ni
   Ni91       1.0     0.787851     0.728564     0.557546    Uiso  ? Ni
   Ni92       1.0     0.674783     0.728955     0.672285    Uiso  ? Ni
   Ni93       1.0     0.787714     0.614060     0.672208    Uiso  ? Ni
   Ni94       1.0     0.899720     0.613801     0.557396    Uiso  ? Ni
   Ni95       1.0     0.445847     0.843265     0.557826    Uiso  ? Ni
   Ni96       1.0     0.560310     0.842663     0.672226    Uiso  ? Ni
   Ni97       1.0     0.674472     0.842419     0.557553    Uiso  ? Ni
   Ni98       1.0     0.331411     0.270647     0.786594    Uiso  ? Ni
   Ni99       1.0     0.560073     0.270857     0.786396    Uiso  ? Ni
   Ni100      1.0     0.787054     0.271932     0.785211    Uiso  ? Ni
   Ni101      1.0     0.330807     0.499437     0.787705    Uiso  ? Ni
   Ni102      1.0     0.445898     0.384285     0.787500    Uiso  ? Ni
   Ni103      1.0     0.560996     0.499390     0.787371    Uiso  ? Ni
   Ni104      1.0     0.445741     0.499331     0.898992    Uiso  ? Ni
   Ni105      1.0     0.559871     0.385476     0.898811    Uiso  ? Ni
   Ni106      1.0     0.674492     0.385316     0.786344    Uiso  ? Ni
   Ni107      1.0     0.787534     0.499711     0.785741    Uiso  ? Ni
   Ni108      1.0     0.673753     0.499679     0.898918    Uiso  ? Ni
   Ni109      1.0     0.331056     0.729143     0.786737    Uiso  ? Ni
   Ni110      1.0     0.445760     0.614622     0.789023    Uiso  ? Ni
   Ni111      1.0     0.560271     0.728945     0.786579    Uiso  ? Ni
   Ni112      1.0     0.560143     0.613902     0.899085    Uiso  ? Ni
   Ni113      1.0     0.674806     0.614085     0.786608    Uiso  ? Ni
   Ni114      1.0     0.787100     0.727717     0.785264    Uiso  ? Ni
   H1         1.0     0.446284     0.499312     0.559700    Uiso  ? H
   H2         1.0     0.215537     0.499796     0.327540    Uiso  ? H
   H3         1.0     0.215443     0.383920     0.442813    Uiso  ? H
   H4         1.0     0.446898     0.499093     0.325897    Uiso  ? H
   H5         1.0     0.446224     0.382544     0.442061    Uiso  ? H
   H6         1.0     0.563371     0.499809     0.442146    Uiso  ? H
   H7         1.0     0.330599     0.615734     0.327127    Uiso  ? H
   H8         1.0     0.446344     0.616958     0.442148    Uiso  ? H
   H9         1.0     0.330541     0.382969     0.559544    Uiso  ? H
   H10        1.0     0.214409     0.500406     0.559505    Uiso  ? H
   H11        1.0     0.562604     0.383116     0.559093    Uiso  ? H
   H12        1.0     0.329334     0.616595     0.558574    Uiso  ? H
   H13        1.0     0.563132     0.616437     0.558594    Uiso  ? H
   H14        1.0     0.445890     0.615062     0.675154    Uiso  ? H
