
#======================================================================
# CRYSTAL DATA
#----------------------------------------------------------------------
data_VESTA_phase_1

_chemical_name_common                  ' Ni H'
_cell_length_a                         15.551633
_cell_length_b                         15.551633
_cell_length_c                         15.551633
_cell_angle_alpha                      90.000000
_cell_angle_beta                       90.000000
_cell_angle_gamma                      90.000000
_cell_volume                           1.000000
_space_group_name_H-M_alt              'P 1'
_space_group_IT_number                 1

loop_
_space_group_symop_operation_xyz
   'x, y, z'

loop_
   _atom_site_label
   _atom_site_occupancy
   _atom_site_fract_x
   _atom_site_fract_y
   _atom_site_fract_z
   _atom_site_adp_type
   _atom_site_U_iso_or_equiv
   _atom_site_type_symbol
   Ni1        1.0     0.217847     0.270354     0.213614    Uiso  ? Ni
   Ni2        1.0     0.447241     0.269986     0.213291    Uiso  ? Ni
   Ni3        1.0     0.674696     0.271583     0.214801    Uiso  ? Ni
   Ni4        1.0     0.332545     0.500000     0.100426    Uiso  ? Ni
   Ni5        1.0     0.216741     0.500000     0.210945    Uiso  ? Ni
   Ni6        1.0     0.332389     0.384106     0.210810    Uiso  ? Ni
   Ni7        1.0     0.447325     0.385198     0.100977    Uiso  ? Ni
   Ni8        1.0     0.561505     0.500000     0.101317    Uiso  ? Ni
   Ni9        1.0     0.448009     0.500000     0.210524    Uiso  ? Ni
   Ni10       1.0     0.562358     0.384708     0.213135    Uiso  ? Ni
   Ni11       1.0     0.675770     0.500000     0.213743    Uiso  ? Ni
   Ni12       1.0     0.217847     0.729646     0.213614    Uiso  ? Ni
   Ni13       1.0     0.332389     0.615894     0.210810    Uiso  ? Ni
   Ni14       1.0     0.447325     0.614802     0.100977    Uiso  ? Ni
   Ni15       1.0     0.447241     0.730014     0.213291    Uiso  ? Ni
   Ni16       1.0     0.562358     0.615292     0.213135    Uiso  ? Ni
   Ni17       1.0     0.674696     0.728417     0.214801    Uiso  ? Ni
   Ni18       1.0     0.332250     0.267365     0.326840    Uiso  ? Ni
   Ni19       1.0     0.216316     0.267365     0.442775    Uiso  ? Ni
   Ni20       1.0     0.332132     0.156487     0.442656    Uiso  ? Ni
   Ni21       1.0     0.447141     0.156953     0.327876    Uiso  ? Ni
   Ni22       1.0     0.562345     0.269254     0.327098    Uiso  ? Ni
   Ni23       1.0     0.447618     0.266341     0.441658    Uiso  ? Ni
   Ni24       1.0     0.561581     0.156976     0.442301    Uiso  ? Ni
   Ni25       1.0     0.787866     0.271770     0.328726    Uiso  ? Ni
   Ni26       1.0     0.676242     0.269963     0.442190    Uiso  ? Ni
   Ni27       1.0     0.100421     0.500000     0.327265    Uiso  ? Ni
   Ni28       1.0     0.100286     0.384106     0.442913    Uiso  ? Ni
   Ni29       1.0     0.214720     0.382282     0.325244    Uiso  ? Ni
   Ni30       1.0     0.331828     0.500000     0.324501    Uiso  ? Ni
   Ni31       1.0     0.213977     0.500000     0.442352    Uiso  ? Ni
   Ni32       1.0     0.331205     0.380826     0.441729    Uiso  ? Ni
   Ni33       1.0     0.449457     0.381721     0.324278    Uiso  ? Ni
   Ni34       1.0     0.564934     0.500000     0.324483    Uiso  ? Ni
   Ni35       1.0     0.447405     0.500000     0.440775    Uiso  ? Ni
   Ni36       1.0     0.565192     0.381679     0.439779    Uiso  ? Ni
   Ni37       1.0     0.676417     0.384697     0.327071    Uiso  ? Ni
   Ni38       1.0     0.788311     0.500000     0.327893    Uiso  ? Ni
   Ni39       1.0     0.679215     0.500000     0.441209    Uiso  ? Ni
   Ni40       1.0     0.788611     0.385155     0.442114    Uiso  ? Ni
   Ni41       1.0     0.899839     0.500000     0.442717    Uiso  ? Ni
   Ni42       1.0     0.100286     0.615894     0.442913    Uiso  ? Ni
   Ni43       1.0     0.214720     0.617718     0.325244    Uiso  ? Ni
   Ni44       1.0     0.332250     0.732635     0.326840    Uiso  ? Ni
   Ni45       1.0     0.216316     0.732635     0.442775    Uiso  ? Ni
   Ni46       1.0     0.331205     0.619174     0.441729    Uiso  ? Ni
   Ni47       1.0     0.449457     0.618279     0.324278    Uiso  ? Ni
   Ni48       1.0     0.562345     0.730746     0.327098    Uiso  ? Ni
   Ni49       1.0     0.447618     0.733659     0.441658    Uiso  ? Ni
   Ni50       1.0     0.565192     0.618321     0.439779    Uiso  ? Ni
   Ni51       1.0     0.676417     0.615303     0.327071    Uiso  ? Ni
   Ni52       1.0     0.787866     0.728230     0.328726    Uiso  ? Ni
   Ni53       1.0     0.676242     0.730037     0.442190    Uiso  ? Ni
   Ni54       1.0     0.788611     0.614845     0.442114    Uiso  ? Ni
   Ni55       1.0     0.332132     0.843513     0.442656    Uiso  ? Ni
   Ni56       1.0     0.447141     0.843047     0.327876    Uiso  ? Ni
   Ni57       1.0     0.561581     0.843024     0.442301    Uiso  ? Ni
   Ni58       1.0     0.331134     0.266341     0.558143    Uiso  ? Ni
   Ni59       1.0     0.216574     0.269254     0.672869    Uiso  ? Ni
   Ni60       1.0     0.446791     0.156567     0.557315    Uiso  ? Ni
   Ni61       1.0     0.562779     0.267185     0.557193    Uiso  ? Ni
   Ni62       1.0     0.446669     0.267185     0.673304    Uiso  ? Ni
   Ni63       1.0     0.561181     0.157322     0.671705    Uiso  ? Ni
   Ni64       1.0     0.675228     0.157463     0.556942    Uiso  ? Ni
   Ni65       1.0     0.788505     0.271115     0.556858    Uiso  ? Ni
   Ni66       1.0     0.675972     0.270268     0.671687    Uiso  ? Ni
   Ni67       1.0     0.100000     0.500000     0.558533    Uiso  ? Ni
   Ni68       1.0     0.213754     0.381721     0.559981    Uiso  ? Ni
   Ni69       1.0     0.330251     0.500000     0.557929    Uiso  ? Ni
   Ni70       1.0     0.213958     0.500000     0.675458    Uiso  ? Ni
   Ni71       1.0     0.329255     0.381679     0.675716    Uiso  ? Ni
   Ni72       1.0     0.447514     0.380107     0.558039    Uiso  ? Ni
   Ni73       1.0     0.565956     0.500000     0.557390    Uiso  ? Ni
   Ni74       1.0     0.446865     0.500000     0.676480    Uiso  ? Ni
   Ni75       1.0     0.564423     0.382094     0.674948    Uiso  ? Ni
   Ni76       1.0     0.678929     0.383889     0.557059    Uiso  ? Ni
   Ni77       1.0     0.789050     0.500000     0.556937    Uiso  ? Ni
   Ni78       1.0     0.678772     0.500000     0.672931    Uiso  ? Ni
   Ni79       1.0     0.788618     0.385266     0.671554    Uiso  ? Ni
   Ni80       1.0     0.899952     0.385992     0.556746    Uiso  ? Ni
   Ni81       1.0     0.900000     0.500000     0.670740    Uiso  ? Ni
   Ni82       1.0     0.213754     0.618279     0.559981    Uiso  ? Ni
   Ni83       1.0     0.331134     0.733659     0.558143    Uiso  ? Ni
   Ni84       1.0     0.216574     0.730746     0.672869    Uiso  ? Ni
   Ni85       1.0     0.329255     0.618321     0.675716    Uiso  ? Ni
   Ni86       1.0     0.447514     0.619893     0.558039    Uiso  ? Ni
   Ni87       1.0     0.562779     0.732815     0.557193    Uiso  ? Ni
   Ni88       1.0     0.446669     0.732815     0.673304    Uiso  ? Ni
   Ni89       1.0     0.564423     0.617906     0.674948    Uiso  ? Ni
   Ni90       1.0     0.678929     0.616111     0.557059    Uiso  ? Ni
   Ni91       1.0     0.788505     0.728885     0.556858    Uiso  ? Ni
   Ni92       1.0     0.675972     0.729732     0.671687    Uiso  ? Ni
   Ni93       1.0     0.788618     0.614733     0.671554    Uiso  ? Ni
   Ni94       1.0     0.899952     0.614008     0.556746    Uiso  ? Ni
   Ni95       1.0     0.446791     0.843433     0.557315    Uiso  ? Ni
   Ni96       1.0     0.561181     0.842678     0.671705    Uiso  ? Ni
   Ni97       1.0     0.675228     0.842537     0.556942    Uiso  ? Ni
   Ni98       1.0     0.331666     0.269963     0.786766    Uiso  ? Ni
   Ni99       1.0     0.561162     0.270268     0.786496    Uiso  ? Ni
   Ni100      1.0     0.787719     0.272018     0.784710    Uiso  ? Ni
   Ni101      1.0     0.330685     0.500000     0.789739    Uiso  ? Ni
   Ni102      1.0     0.446535     0.383889     0.789454    Uiso  ? Ni
   Ni103      1.0     0.562407     0.500000     0.789296    Uiso  ? Ni
   Ni104      1.0     0.446413     0.500000     0.899574    Uiso  ? Ni
   Ni105      1.0     0.561030     0.385266     0.899142    Uiso  ? Ni
   Ni106      1.0     0.675923     0.385210     0.786447    Uiso  ? Ni
   Ni107      1.0     0.788441     0.500000     0.785524    Uiso  ? Ni
   Ni108      1.0     0.675000     0.500000     0.898965    Uiso  ? Ni
   Ni109      1.0     0.331666     0.730037     0.786766    Uiso  ? Ni
   Ni110      1.0     0.446535     0.616111     0.789454    Uiso  ? Ni
   Ni111      1.0     0.561162     0.729732     0.786496    Uiso  ? Ni
   Ni112      1.0     0.561030     0.614733     0.899142    Uiso  ? Ni
   Ni113      1.0     0.675923     0.614790     0.786447    Uiso  ? Ni
   Ni114      1.0     0.787719     0.727982     0.784710    Uiso  ? Ni
   H1         1.0     0.447038     0.500000     0.557562    Uiso  ? H
   H2         1.0     0.332012     0.383362     0.325787    Uiso  ? H
   H3         1.0     0.215713     0.500000     0.326237    Uiso  ? H
   H4         1.0     0.215263     0.383362     0.442537    Uiso  ? H
   H5         1.0     0.448386     0.500000     0.324852    Uiso  ? H
   H6         1.0     0.447843     0.382593     0.441221    Uiso  ? H
   H7         1.0     0.564655     0.500000     0.440620    Uiso  ? H
   H8         1.0     0.332012     0.616638     0.325787    Uiso  ? H
   H9         1.0     0.215263     0.616638     0.442537    Uiso  ? H
   H10        1.0     0.447843     0.617407     0.441221    Uiso  ? H
   H11        1.0     0.330696     0.382593     0.558367    Uiso  ? H
   H12        1.0     0.214328     0.500000     0.558910    Uiso  ? H
   H13        1.0     0.330096     0.500000     0.675179    Uiso  ? H
   H14        1.0     0.564118     0.382848     0.557465    Uiso  ? H
   H15        1.0     0.446941     0.382848     0.674643    Uiso  ? H
   H16        1.0     0.563701     0.500000     0.674225    Uiso  ? H
   H17        1.0     0.330696     0.617407     0.558367    Uiso  ? H
   H18        1.0     0.564118     0.617152     0.557465    Uiso  ? H
   H19        1.0     0.446941     0.617152     0.674643    Uiso  ? H
