
#======================================================================
# CRYSTAL DATA
#----------------------------------------------------------------------
data_VESTA_phase_1

_chemical_name_common                  ' Ni H'
_cell_length_a                         15.492298
_cell_length_b                         15.492298
_cell_length_c                         15.492298
_cell_angle_alpha                      90.000000
_cell_angle_beta                       90.000000
_cell_angle_gamma                      90.000000
_cell_volume                           1.000000
_space_group_name_H-M_alt              'P 1'
_space_group_IT_number                 1

loop_
_space_group_symop_operation_xyz
   'x, y, z'

loop_
   _atom_site_label
   _atom_site_occupancy
   _atom_site_fract_x
   _atom_site_fract_y
   _atom_site_fract_z
   _atom_site_adp_type
   _atom_site_U_iso_or_equiv
   _atom_site_type_symbol
   Ni1        1.0     0.216490     0.271224     0.213607    Uiso  ? Ni
   Ni2        1.0     0.444901     0.271172     0.213685    Uiso  ? Ni
   Ni3        1.0     0.672995     0.271942     0.214325    Uiso  ? Ni
   Ni4        1.0     0.330706     0.500484     0.100093    Uiso  ? Ni
   Ni5        1.0     0.215991     0.500784     0.211522    Uiso  ? Ni
   Ni6        1.0     0.330769     0.385325     0.213118    Uiso  ? Ni
   Ni7        1.0     0.444985     0.385793     0.100478    Uiso  ? Ni
   Ni8        1.0     0.559278     0.500424     0.100730    Uiso  ? Ni
   Ni9        1.0     0.444943     0.500566     0.211512    Uiso  ? Ni
   Ni10       1.0     0.559425     0.385396     0.213656    Uiso  ? Ni
   Ni11       1.0     0.673761     0.500485     0.213611    Uiso  ? Ni
   Ni12       1.0     0.216511     0.729229     0.214022    Uiso  ? Ni
   Ni13       1.0     0.330538     0.615680     0.213525    Uiso  ? Ni
   Ni14       1.0     0.444860     0.615048     0.100493    Uiso  ? Ni
   Ni15       1.0     0.444798     0.729439     0.213915    Uiso  ? Ni
   Ni16       1.0     0.559313     0.615561     0.213633    Uiso  ? Ni
   Ni17       1.0     0.672925     0.728764     0.214399    Uiso  ? Ni
   Ni18       1.0     0.330590     0.270239     0.327363    Uiso  ? Ni
   Ni19       1.0     0.215907     0.269142     0.442423    Uiso  ? Ni
   Ni20       1.0     0.330569     0.157206     0.442118    Uiso  ? Ni
   Ni21       1.0     0.444863     0.157660     0.327807    Uiso  ? Ni
   Ni22       1.0     0.559524     0.270411     0.327167    Uiso  ? Ni
   Ni23       1.0     0.444668     0.269174     0.441267    Uiso  ? Ni
   Ni24       1.0     0.559189     0.157433     0.441785    Uiso  ? Ni
   Ni25       1.0     0.786838     0.271964     0.328208    Uiso  ? Ni
   Ni26       1.0     0.673974     0.270878     0.441755    Uiso  ? Ni
   Ni27       1.0     0.100000     0.500832     0.327862    Uiso  ? Ni
   Ni28       1.0     0.100038     0.385697     0.442656    Uiso  ? Ni
   Ni29       1.0     0.215700     0.383740     0.325938    Uiso  ? Ni
   Ni30       1.0     0.329886     0.500987     0.326822    Uiso  ? Ni
   Ni31       1.0     0.214665     0.502624     0.443559    Uiso  ? Ni
   Ni32       1.0     0.330945     0.384001     0.441213    Uiso  ? Ni
   Ni33       1.0     0.444947     0.383038     0.326544    Uiso  ? Ni
   Ni34       1.0     0.561460     0.500832     0.325259    Uiso  ? Ni
   Ni35       1.0     0.443415     0.501329     0.441073    Uiso  ? Ni
   Ni36       1.0     0.560168     0.383137     0.439535    Uiso  ? Ni
   Ni37       1.0     0.674213     0.385385     0.327249    Uiso  ? Ni
   Ni38       1.0     0.787235     0.500495     0.327618    Uiso  ? Ni
   Ni39       1.0     0.676661     0.500833     0.441252    Uiso  ? Ni
   Ni40       1.0     0.787683     0.385701     0.441755    Uiso  ? Ni
   Ni41       1.0     0.899814     0.500460     0.442285    Uiso  ? Ni
   Ni42       1.0     0.101549     0.615758     0.442604    Uiso  ? Ni
   Ni43       1.0     0.215676     0.617675     0.327671    Uiso  ? Ni
   Ni44       1.0     0.330348     0.730095     0.327877    Uiso  ? Ni
   Ni45       1.0     0.215813     0.729753     0.442499    Uiso  ? Ni
   Ni46       1.0     0.329353     0.617413     0.441637    Uiso  ? Ni
   Ni47       1.0     0.444857     0.617985     0.327253    Uiso  ? Ni
   Ni48       1.0     0.559471     0.730038     0.327562    Uiso  ? Ni
   Ni49       1.0     0.444575     0.730953     0.441582    Uiso  ? Ni
   Ni50       1.0     0.560383     0.618380     0.441050    Uiso  ? Ni
   Ni51       1.0     0.674000     0.615615     0.327555    Uiso  ? Ni
   Ni52       1.0     0.786781     0.728749     0.328307    Uiso  ? Ni
   Ni53       1.0     0.673819     0.729685     0.442030    Uiso  ? Ni
   Ni54       1.0     0.787462     0.615286     0.442031    Uiso  ? Ni
   Ni55       1.0     0.330301     0.842768     0.442224    Uiso  ? Ni
   Ni56       1.0     0.444776     0.842653     0.328101    Uiso  ? Ni
   Ni57       1.0     0.559081     0.842583     0.442170    Uiso  ? Ni
   Ni58       1.0     0.329427     0.269475     0.556476    Uiso  ? Ni
   Ni59       1.0     0.215257     0.270405     0.671421    Uiso  ? Ni
   Ni60       1.0     0.444460     0.157135     0.556328    Uiso  ? Ni
   Ni61       1.0     0.559881     0.268315     0.556238    Uiso  ? Ni
   Ni62       1.0     0.444422     0.268235     0.671760    Uiso  ? Ni
   Ni63       1.0     0.559372     0.157326     0.671182    Uiso  ? Ni
   Ni64       1.0     0.673548     0.157536     0.556415    Uiso  ? Ni
   Ni65       1.0     0.787408     0.271405     0.556401    Uiso  ? Ni
   Ni66       1.0     0.674401     0.270538     0.671178    Uiso  ? Ni
   Ni67       1.0     0.101415     0.500862     0.557067    Uiso  ? Ni
   Ni68       1.0     0.214868     0.384802     0.558443    Uiso  ? Ni
   Ni69       1.0     0.327081     0.501218     0.555261    Uiso  ? Ni
   Ni70       1.0     0.212916     0.500865     0.671649    Uiso  ? Ni
   Ni71       1.0     0.327451     0.382986     0.672211    Uiso  ? Ni
   Ni72       1.0     0.443065     0.382295     0.555013    Uiso  ? Ni
   Ni73       1.0     0.562481     0.502487     0.556271    Uiso  ? Ni
   Ni74       1.0     0.444292     0.500752     0.673752    Uiso  ? Ni
   Ni75       1.0     0.562013     0.382888     0.673551    Uiso  ? Ni
   Ni76       1.0     0.676514     0.384926     0.556204    Uiso  ? Ni
   Ni77       1.0     0.787873     0.500801     0.556474    Uiso  ? Ni
   Ni78       1.0     0.676872     0.500824     0.671919    Uiso  ? Ni
   Ni79       1.0     0.787565     0.385655     0.671129    Uiso  ? Ni
   Ni80       1.0     0.899792     0.386274     0.556467    Uiso  ? Ni
   Ni81       1.0     0.899783     0.500461     0.670622    Uiso  ? Ni
   Ni82       1.0     0.214718     0.616701     0.556741    Uiso  ? Ni
   Ni83       1.0     0.329437     0.730657     0.556115    Uiso  ? Ni
   Ni84       1.0     0.215303     0.730029     0.670973    Uiso  ? Ni
   Ni85       1.0     0.327449     0.617959     0.671448    Uiso  ? Ni
   Ni86       1.0     0.444247     0.618984     0.554602    Uiso  ? Ni
   Ni87       1.0     0.559920     0.730597     0.556187    Uiso  ? Ni
   Ni88       1.0     0.444623     0.732170     0.671233    Uiso  ? Ni
   Ni89       1.0     0.561947     0.618391     0.671893    Uiso  ? Ni
   Ni90       1.0     0.675205     0.616520     0.556182    Uiso  ? Ni
   Ni91       1.0     0.787176     0.729132     0.556402    Uiso  ? Ni
   Ni92       1.0     0.674138     0.729946     0.670857    Uiso  ? Ni
   Ni93       1.0     0.787331     0.615327     0.670846    Uiso  ? Ni
   Ni94       1.0     0.900000     0.614635     0.556467    Uiso  ? Ni
   Ni95       1.0     0.444688     0.842865     0.556184    Uiso  ? Ni
   Ni96       1.0     0.559333     0.842803     0.670717    Uiso  ? Ni
   Ni97       1.0     0.673167     0.842623     0.556391    Uiso  ? Ni
   Ni98       1.0     0.329843     0.270824     0.785872    Uiso  ? Ni
   Ni99       1.0     0.559436     0.270551     0.786183    Uiso  ? Ni
   Ni100      1.0     0.786885     0.271970     0.784800    Uiso  ? Ni
   Ni101      1.0     0.328793     0.500519     0.788283    Uiso  ? Ni
   Ni102      1.0     0.444441     0.384582     0.788626    Uiso  ? Ni
   Ni103      1.0     0.560435     0.500734     0.788543    Uiso  ? Ni
   Ni104      1.0     0.444587     0.500461     0.899907    Uiso  ? Ni
   Ni105      1.0     0.559418     0.385625     0.899433    Uiso  ? Ni
   Ni106      1.0     0.674396     0.385593     0.786138    Uiso  ? Ni
   Ni107      1.0     0.787424     0.500498     0.785389    Uiso  ? Ni
   Ni108      1.0     0.673665     0.500467     0.899282    Uiso  ? Ni
   Ni109      1.0     0.329929     0.729759     0.785614    Uiso  ? Ni
   Ni110      1.0     0.444603     0.616308     0.788193    Uiso  ? Ni
   Ni111      1.0     0.559386     0.729875     0.785746    Uiso  ? Ni
   Ni112      1.0     0.559364     0.615255     0.899538    Uiso  ? Ni
   Ni113      1.0     0.674062     0.615354     0.785760    Uiso  ? Ni
   Ni114      1.0     0.786769     0.728710     0.784670    Uiso  ? Ni
   H1         1.0     0.443653     0.500925     0.555712    Uiso  ? H
   H2         1.0     0.215112     0.501302     0.326988    Uiso  ? H
   H3         1.0     0.215889     0.385620     0.443034    Uiso  ? H
   H4         1.0     0.444830     0.500304     0.325908    Uiso  ? H
   H5         1.0     0.561202     0.501333     0.440650    Uiso  ? H
   H6         1.0     0.327367     0.500382     0.672154    Uiso  ? H
   H7         1.0     0.560626     0.384069     0.556043    Uiso  ? H
   H8         1.0     0.444276     0.383424     0.672690    Uiso  ? H
   H9         1.0     0.561669     0.500988     0.673114    Uiso  ? H
   H10        1.0     0.444717     0.617564     0.671796    Uiso  ? H
