
#======================================================================
# CRYSTAL DATA
#----------------------------------------------------------------------
data_VESTA_phase_1

_chemical_name_common                  ' Ni H'
_cell_length_a                         15.520832
_cell_length_b                         15.520832
_cell_length_c                         15.520832
_cell_angle_alpha                      90.000000
_cell_angle_beta                       90.000000
_cell_angle_gamma                      90.000000
_cell_volume                           1.000000
_space_group_name_H-M_alt              'P 1'
_space_group_IT_number                 1

loop_
_space_group_symop_operation_xyz
   'x, y, z'

loop_
   _atom_site_label
   _atom_site_occupancy
   _atom_site_fract_x
   _atom_site_fract_y
   _atom_site_fract_z
   _atom_site_adp_type
   _atom_site_U_iso_or_equiv
   _atom_site_type_symbol
   Ni1        1.0     0.217388     0.270451     0.214117    Uiso  ? Ni
   Ni2        1.0     0.445985     0.270180     0.213905    Uiso  ? Ni
   Ni3        1.0     0.673770     0.271343     0.215002    Uiso  ? Ni
   Ni4        1.0     0.331711     0.499287     0.100505    Uiso  ? Ni
   Ni5        1.0     0.216473     0.499232     0.211476    Uiso  ? Ni
   Ni6        1.0     0.331560     0.383821     0.212840    Uiso  ? Ni
   Ni7        1.0     0.446051     0.384904     0.101155    Uiso  ? Ni
   Ni8        1.0     0.560425     0.499610     0.101291    Uiso  ? Ni
   Ni9        1.0     0.446552     0.499473     0.211364    Uiso  ? Ni
   Ni10       1.0     0.560838     0.384454     0.213687    Uiso  ? Ni
   Ni11       1.0     0.674686     0.499585     0.214104    Uiso  ? Ni
   Ni12       1.0     0.217138     0.729130     0.213870    Uiso  ? Ni
   Ni13       1.0     0.331797     0.614893     0.211681    Uiso  ? Ni
   Ni14       1.0     0.446369     0.614309     0.100811    Uiso  ? Ni
   Ni15       1.0     0.446313     0.729256     0.213846    Uiso  ? Ni
   Ni16       1.0     0.561007     0.614725     0.213736    Uiso  ? Ni
   Ni17       1.0     0.673848     0.728054     0.214930    Uiso  ? Ni
   Ni18       1.0     0.331443     0.269443     0.327763    Uiso  ? Ni
   Ni19       1.0     0.216500     0.268198     0.443329    Uiso  ? Ni
   Ni20       1.0     0.331350     0.156966     0.443032    Uiso  ? Ni
   Ni21       1.0     0.445848     0.157234     0.328355    Uiso  ? Ni
   Ni22       1.0     0.560837     0.269708     0.327860    Uiso  ? Ni
   Ni23       1.0     0.446066     0.267186     0.442423    Uiso  ? Ni
   Ni24       1.0     0.560364     0.157267     0.442862    Uiso  ? Ni
   Ni25       1.0     0.787231     0.271454     0.328967    Uiso  ? Ni
   Ni26       1.0     0.674881     0.270175     0.442702    Uiso  ? Ni
   Ni27       1.0     0.100443     0.499275     0.328124    Uiso  ? Ni
   Ni28       1.0     0.100662     0.384335     0.443509    Uiso  ? Ni
   Ni29       1.0     0.216085     0.382143     0.326196    Uiso  ? Ni
   Ni30       1.0     0.331001     0.497643     0.326069    Uiso  ? Ni
   Ni31       1.0     0.214907     0.499333     0.444747    Uiso  ? Ni
   Ni32       1.0     0.330690     0.382091     0.442769    Uiso  ? Ni
   Ni33       1.0     0.446671     0.381779     0.325481    Uiso  ? Ni
   Ni34       1.0     0.563124     0.499337     0.325544    Uiso  ? Ni
   Ni35       1.0     0.445177     0.500481     0.441970    Uiso  ? Ni
   Ni36       1.0     0.563150     0.381753     0.441748    Uiso  ? Ni
   Ni37       1.0     0.675129     0.384441     0.327863    Uiso  ? Ni
   Ni38       1.0     0.787614     0.499607     0.328252    Uiso  ? Ni
   Ni39       1.0     0.677642     0.499458     0.441921    Uiso  ? Ni
   Ni40       1.0     0.787715     0.384859     0.442658    Uiso  ? Ni
   Ni41       1.0     0.899772     0.499590     0.442878    Uiso  ? Ni
   Ni42       1.0     0.100000     0.614774     0.443518    Uiso  ? Ni
   Ni43       1.0     0.214556     0.616598     0.326037    Uiso  ? Ni
   Ni44       1.0     0.331671     0.731710     0.327658    Uiso  ? Ni
   Ni45       1.0     0.216106     0.731433     0.443293    Uiso  ? Ni
   Ni46       1.0     0.331712     0.616855     0.442507    Uiso  ? Ni
   Ni47       1.0     0.448272     0.617406     0.326398    Uiso  ? Ni
   Ni48       1.0     0.561083     0.730005     0.327645    Uiso  ? Ni
   Ni49       1.0     0.446499     0.731410     0.441992    Uiso  ? Ni
   Ni50       1.0     0.562359     0.617419     0.440247    Uiso  ? Ni
   Ni51       1.0     0.675089     0.614732     0.327698    Uiso  ? Ni
   Ni52       1.0     0.787271     0.727911     0.328858    Uiso  ? Ni
   Ni53       1.0     0.674972     0.729278     0.442389    Uiso  ? Ni
   Ni54       1.0     0.788053     0.614344     0.442345    Uiso  ? Ni
   Ni55       1.0     0.331587     0.843034     0.442940    Uiso  ? Ni
   Ni56       1.0     0.446260     0.842542     0.328384    Uiso  ? Ni
   Ni57       1.0     0.560343     0.842519     0.442450    Uiso  ? Ni
   Ni58       1.0     0.330395     0.269136     0.558073    Uiso  ? Ni
   Ni59       1.0     0.216481     0.270087     0.672257    Uiso  ? Ni
   Ni60       1.0     0.445677     0.157072     0.557357    Uiso  ? Ni
   Ni61       1.0     0.561158     0.269242     0.557261    Uiso  ? Ni
   Ni62       1.0     0.445370     0.267933     0.672457    Uiso  ? Ni
   Ni63       1.0     0.560092     0.157532     0.671354    Uiso  ? Ni
   Ni64       1.0     0.673904     0.157654     0.557067    Uiso  ? Ni
   Ni65       1.0     0.787577     0.271111     0.556993    Uiso  ? Ni
   Ni66       1.0     0.674741     0.270367     0.671434    Uiso  ? Ni
   Ni67       1.0     0.101976     0.499212     0.558830    Uiso  ? Ni
   Ni68       1.0     0.215258     0.383333     0.560190    Uiso  ? Ni
   Ni69       1.0     0.328027     0.497414     0.559221    Uiso  ? Ni
   Ni70       1.0     0.215366     0.499186     0.673376    Uiso  ? Ni
   Ni71       1.0     0.328341     0.383315     0.673513    Uiso  ? Ni
   Ni72       1.0     0.445598     0.381006     0.557875    Uiso  ? Ni
   Ni73       1.0     0.563719     0.497707     0.557440    Uiso  ? Ni
   Ni74       1.0     0.443673     0.499293     0.675155    Uiso  ? Ni
   Ni75       1.0     0.562737     0.381974     0.672918    Uiso  ? Ni
   Ni76       1.0     0.676184     0.383589     0.557141    Uiso  ? Ni
   Ni77       1.0     0.788241     0.499280     0.557049    Uiso  ? Ni
   Ni78       1.0     0.677505     0.499235     0.672489    Uiso  ? Ni
   Ni79       1.0     0.787762     0.384867     0.671324    Uiso  ? Ni
   Ni80       1.0     0.900000     0.385563     0.556916    Uiso  ? Ni
   Ni81       1.0     0.899869     0.499592     0.670924    Uiso  ? Ni
   Ni82       1.0     0.213873     0.615258     0.560222    Uiso  ? Ni
   Ni83       1.0     0.330474     0.732022     0.558026    Uiso  ? Ni
   Ni84       1.0     0.216245     0.729442     0.672483    Uiso  ? Ni
   Ni85       1.0     0.328309     0.615321     0.674830    Uiso  ? Ni
   Ni86       1.0     0.446012     0.617961     0.556765    Uiso  ? Ni
   Ni87       1.0     0.561285     0.731938     0.557031    Uiso  ? Ni
   Ni88       1.0     0.445427     0.731684     0.672832    Uiso  ? Ni
   Ni89       1.0     0.562901     0.616811     0.674425    Uiso  ? Ni
   Ni90       1.0     0.677364     0.615117     0.556934    Uiso  ? Ni
   Ni91       1.0     0.787807     0.728437     0.556959    Uiso  ? Ni
   Ni92       1.0     0.675000     0.729224     0.671684    Uiso  ? Ni
   Ni93       1.0     0.787948     0.614251     0.671550    Uiso  ? Ni
   Ni94       1.0     0.899821     0.613634     0.556918    Uiso  ? Ni
   Ni95       1.0     0.445776     0.842935     0.557125    Uiso  ? Ni
   Ni96       1.0     0.560185     0.842397     0.671733    Uiso  ? Ni
   Ni97       1.0     0.674327     0.842283     0.557021    Uiso  ? Ni
   Ni98       1.0     0.330863     0.270610     0.785936    Uiso  ? Ni
   Ni99       1.0     0.560065     0.270454     0.786066    Uiso  ? Ni
   Ni100      1.0     0.787101     0.271650     0.784858    Uiso  ? Ni
   Ni101      1.0     0.329596     0.499237     0.787277    Uiso  ? Ni
   Ni102      1.0     0.445203     0.384078     0.788505    Uiso  ? Ni
   Ni103      1.0     0.560844     0.499287     0.788618    Uiso  ? Ni
   Ni104      1.0     0.445042     0.499523     0.899495    Uiso  ? Ni
   Ni105      1.0     0.559944     0.384992     0.899387    Uiso  ? Ni
   Ni106      1.0     0.674653     0.384879     0.786040    Uiso  ? Ni
   Ni107      1.0     0.787802     0.499550     0.785580    Uiso  ? Ni
   Ni108      1.0     0.674075     0.499560     0.899129    Uiso  ? Ni
   Ni109      1.0     0.330791     0.728947     0.786267    Uiso  ? Ni
   Ni110      1.0     0.445197     0.615038     0.789069    Uiso  ? Ni
   Ni111      1.0     0.560157     0.729167     0.786482    Uiso  ? Ni
   Ni112      1.0     0.560044     0.614173     0.899323    Uiso  ? Ni
   Ni113      1.0     0.674981     0.614249     0.786413    Uiso  ? Ni
   Ni114      1.0     0.787205     0.727739     0.784967    Uiso  ? Ni
   H1         1.0     0.444751     0.499091     0.557523    Uiso  ? H
   H2         1.0     0.215586     0.498926     0.327252    Uiso  ? H
   H3         1.0     0.216255     0.383810     0.443873    Uiso  ? H
   H4         1.0     0.446757     0.499573     0.325976    Uiso  ? H
   H5         1.0     0.446153     0.382764     0.441848    Uiso  ? H
   H6         1.0     0.562688     0.499593     0.441419    Uiso  ? H
   H7         1.0     0.331952     0.615489     0.327130    Uiso  ? H
   H8         1.0     0.214883     0.615539     0.443390    Uiso  ? H
   H9         1.0     0.445034     0.382994     0.673371    Uiso  ? H
   H10        1.0     0.561909     0.498988     0.673674    Uiso  ? H
   H11        1.0     0.329763     0.614739     0.558351    Uiso  ? H
   H12        1.0     0.562161     0.616028     0.556906    Uiso  ? H
   H13        1.0     0.445392     0.616159     0.674292    Uiso  ? H
