
#======================================================================
# CRYSTAL DATA
#----------------------------------------------------------------------
data_VESTA_phase_1

_chemical_name_common                  ' Ni H'
_cell_length_a                         15.527551
_cell_length_b                         15.527551
_cell_length_c                         15.527551
_cell_angle_alpha                      90.000000
_cell_angle_beta                       90.000000
_cell_angle_gamma                      90.000000
_cell_volume                           1.000000
_space_group_name_H-M_alt              'P 1'
_space_group_IT_number                 1

loop_
_space_group_symop_operation_xyz
   'x, y, z'

loop_
   _atom_site_label
   _atom_site_occupancy
   _atom_site_fract_x
   _atom_site_fract_y
   _atom_site_fract_z
   _atom_site_adp_type
   _atom_site_U_iso_or_equiv
   _atom_site_type_symbol
   Ni1        1.0     0.217343     0.270760     0.213767    Uiso  ? Ni
   Ni2        1.0     0.446174     0.270379     0.213429    Uiso  ? Ni
   Ni3        1.0     0.674098     0.271725     0.214695    Uiso  ? Ni
   Ni4        1.0     0.331727     0.499800     0.100507    Uiso  ? Ni
   Ni5        1.0     0.216379     0.500111     0.211448    Uiso  ? Ni
   Ni6        1.0     0.331527     0.384235     0.212536    Uiso  ? Ni
   Ni7        1.0     0.446199     0.385288     0.101073    Uiso  ? Ni
   Ni8        1.0     0.560660     0.500077     0.101132    Uiso  ? Ni
   Ni9        1.0     0.446775     0.499848     0.210804    Uiso  ? Ni
   Ni10       1.0     0.561226     0.384927     0.213411    Uiso  ? Ni
   Ni11       1.0     0.675054     0.500191     0.213759    Uiso  ? Ni
   Ni12       1.0     0.217143     0.729451     0.214003    Uiso  ? Ni
   Ni13       1.0     0.331391     0.615581     0.211482    Uiso  ? Ni
   Ni14       1.0     0.446393     0.614846     0.100841    Uiso  ? Ni
   Ni15       1.0     0.446382     0.730010     0.213456    Uiso  ? Ni
   Ni16       1.0     0.561450     0.615364     0.213133    Uiso  ? Ni
   Ni17       1.0     0.674066     0.728599     0.214741    Uiso  ? Ni
   Ni18       1.0     0.331418     0.269282     0.326749    Uiso  ? Ni
   Ni19       1.0     0.216108     0.267989     0.442379    Uiso  ? Ni
   Ni20       1.0     0.331391     0.156811     0.442276    Uiso  ? Ni
   Ni21       1.0     0.446046     0.157313     0.327749    Uiso  ? Ni
   Ni22       1.0     0.561218     0.269763     0.327084    Uiso  ? Ni
   Ni23       1.0     0.446339     0.266980     0.441336    Uiso  ? Ni
   Ni24       1.0     0.560722     0.157092     0.442169    Uiso  ? Ni
   Ni25       1.0     0.787538     0.271854     0.328649    Uiso  ? Ni
   Ni26       1.0     0.675508     0.270262     0.442157    Uiso  ? Ni
   Ni27       1.0     0.100395     0.500246     0.327704    Uiso  ? Ni
   Ni28       1.0     0.100309     0.384861     0.442605    Uiso  ? Ni
   Ni29       1.0     0.215711     0.382713     0.325279    Uiso  ? Ni
   Ni30       1.0     0.330882     0.498596     0.325021    Uiso  ? Ni
   Ni31       1.0     0.214322     0.501805     0.442500    Uiso  ? Ni
   Ni32       1.0     0.330352     0.382106     0.440080    Uiso  ? Ni
   Ni33       1.0     0.446882     0.381951     0.324263    Uiso  ? Ni
   Ni34       1.0     0.563745     0.500219     0.324918    Uiso  ? Ni
   Ni35       1.0     0.445835     0.500509     0.441160    Uiso  ? Ni
   Ni36       1.0     0.563925     0.382394     0.439731    Uiso  ? Ni
   Ni37       1.0     0.675823     0.385005     0.327157    Uiso  ? Ni
   Ni38       1.0     0.787845     0.500302     0.328011    Uiso  ? Ni
   Ni39       1.0     0.678225     0.500587     0.441677    Uiso  ? Ni
   Ni40       1.0     0.788173     0.385484     0.442198    Uiso  ? Ni
   Ni41       1.0     0.899737     0.500295     0.442764    Uiso  ? Ni
   Ni42       1.0     0.101575     0.615999     0.442899    Uiso  ? Ni
   Ni43       1.0     0.214220     0.617609     0.327044    Uiso  ? Ni
   Ni44       1.0     0.331237     0.732282     0.327495    Uiso  ? Ni
   Ni45       1.0     0.215668     0.730944     0.442840    Uiso  ? Ni
   Ni46       1.0     0.328919     0.618291     0.442187    Uiso  ? Ni
   Ni47       1.0     0.448361     0.618031     0.324979    Uiso  ? Ni
   Ni48       1.0     0.561538     0.730532     0.327558    Uiso  ? Ni
   Ni49       1.0     0.446709     0.733125     0.442158    Uiso  ? Ni
   Ni50       1.0     0.564378     0.618513     0.441536    Uiso  ? Ni
   Ni51       1.0     0.675449     0.615451     0.327496    Uiso  ? Ni
   Ni52       1.0     0.787398     0.728453     0.328766    Uiso  ? Ni
   Ni53       1.0     0.675404     0.729976     0.442528    Uiso  ? Ni
   Ni54       1.0     0.787876     0.615127     0.442511    Uiso  ? Ni
   Ni55       1.0     0.331166     0.843343     0.442827    Uiso  ? Ni
   Ni56       1.0     0.446359     0.843095     0.328121    Uiso  ? Ni
   Ni57       1.0     0.560836     0.842828     0.442686    Uiso  ? Ni
   Ni58       1.0     0.330481     0.267242     0.557817    Uiso  ? Ni
   Ni59       1.0     0.216221     0.269901     0.672729    Uiso  ? Ni
   Ni60       1.0     0.445956     0.156657     0.557175    Uiso  ? Ni
   Ni61       1.0     0.561858     0.267538     0.557087    Uiso  ? Ni
   Ni62       1.0     0.445673     0.267741     0.673200    Uiso  ? Ni
   Ni63       1.0     0.560435     0.157352     0.671719    Uiso  ? Ni
   Ni64       1.0     0.674612     0.157458     0.556918    Uiso  ? Ni
   Ni65       1.0     0.787996     0.271336     0.556871    Uiso  ? Ni
   Ni66       1.0     0.675272     0.270541     0.671671    Uiso  ? Ni
   Ni67       1.0     0.100000     0.500557     0.558278    Uiso  ? Ni
   Ni68       1.0     0.213736     0.382683     0.559623    Uiso  ? Ni
   Ni69       1.0     0.329696     0.500454     0.559218    Uiso  ? Ni
   Ni70       1.0     0.215062     0.500509     0.675191    Uiso  ? Ni
   Ni71       1.0     0.328498     0.383589     0.675646    Uiso  ? Ni
   Ni72       1.0     0.446428     0.381139     0.557873    Uiso  ? Ni
   Ni73       1.0     0.564757     0.502108     0.557554    Uiso  ? Ni
   Ni74       1.0     0.444662     0.500522     0.676090    Uiso  ? Ni
   Ni75       1.0     0.563371     0.382927     0.674654    Uiso  ? Ni
   Ni76       1.0     0.677916     0.384617     0.557014    Uiso  ? Ni
   Ni77       1.0     0.788371     0.500635     0.556983    Uiso  ? Ni
   Ni78       1.0     0.677889     0.500620     0.672584    Uiso  ? Ni
   Ni79       1.0     0.788148     0.385582     0.671536    Uiso  ? Ni
   Ni80       1.0     0.899797     0.386249     0.556799    Uiso  ? Ni
   Ni81       1.0     0.899882     0.500290     0.670813    Uiso  ? Ni
   Ni82       1.0     0.213403     0.618191     0.558532    Uiso  ? Ni
   Ni83       1.0     0.330539     0.732864     0.557911    Uiso  ? Ni
   Ni84       1.0     0.216211     0.730251     0.672429    Uiso  ? Ni
   Ni85       1.0     0.328545     0.616917     0.675089    Uiso  ? Ni
   Ni86       1.0     0.447992     0.619514     0.557980    Uiso  ? Ni
   Ni87       1.0     0.562103     0.731240     0.557257    Uiso  ? Ni
   Ni88       1.0     0.445993     0.732398     0.672814    Uiso  ? Ni
   Ni89       1.0     0.563493     0.618034     0.673267    Uiso  ? Ni
   Ni90       1.0     0.676578     0.616456     0.557177    Uiso  ? Ni
   Ni91       1.0     0.787768     0.728854     0.556930    Uiso  ? Ni
   Ni92       1.0     0.675119     0.729682     0.671486    Uiso  ? Ni
   Ni93       1.0     0.787927     0.615050     0.671295    Uiso  ? Ni
   Ni94       1.0     0.900000     0.614326     0.556806    Uiso  ? Ni
   Ni95       1.0     0.446318     0.843272     0.557296    Uiso  ? Ni
   Ni96       1.0     0.560506     0.842569     0.671409    Uiso  ? Ni
   Ni97       1.0     0.674348     0.842472     0.557001    Uiso  ? Ni
   Ni98       1.0     0.330945     0.270531     0.786562    Uiso  ? Ni
   Ni99       1.0     0.560432     0.270570     0.786481    Uiso  ? Ni
   Ni100      1.0     0.787349     0.272107     0.784868    Uiso  ? Ni
   Ni101      1.0     0.330022     0.500319     0.788002    Uiso  ? Ni
   Ni102      1.0     0.445540     0.384566     0.789231    Uiso  ? Ni
   Ni103      1.0     0.561334     0.500555     0.788807    Uiso  ? Ni
   Ni104      1.0     0.445412     0.500283     0.899493    Uiso  ? Ni
   Ni105      1.0     0.560315     0.385612     0.899257    Uiso  ? Ni
   Ni106      1.0     0.675268     0.385560     0.786418    Uiso  ? Ni
   Ni107      1.0     0.787986     0.500314     0.785544    Uiso  ? Ni
   Ni108      1.0     0.674347     0.500287     0.899094    Uiso  ? Ni
   Ni109      1.0     0.331040     0.729748     0.786350    Uiso  ? Ni
   Ni110      1.0     0.445740     0.615990     0.788907    Uiso  ? Ni
   Ni111      1.0     0.560451     0.729584     0.786156    Uiso  ? Ni
   Ni112      1.0     0.560293     0.614931     0.899390    Uiso  ? Ni
   Ni113      1.0     0.675013     0.615042     0.786125    Uiso  ? Ni
   Ni114      1.0     0.787288     0.728257     0.784802    Uiso  ? Ni
   H1         1.0     0.446284     0.500588     0.557906    Uiso  ? H
   H2         1.0     0.215568     0.500181     0.326941    Uiso  ? H
   H3         1.0     0.215210     0.384266     0.442031    Uiso  ? H
   H4         1.0     0.446968     0.499563     0.325034    Uiso  ? H
   H5         1.0     0.446318     0.382994     0.440575    Uiso  ? H
   H6         1.0     0.563538     0.500862     0.441191    Uiso  ? H
   H7         1.0     0.330871     0.616101     0.326805    Uiso  ? H
   H8         1.0     0.447136     0.617641     0.441847    Uiso  ? H
   H9         1.0     0.330097     0.383448     0.558157    Uiso  ? H
   H10        1.0     0.214382     0.500834     0.559005    Uiso  ? H
   H11        1.0     0.563170     0.383657     0.557253    Uiso  ? H
   H12        1.0     0.445644     0.383664     0.674582    Uiso  ? H
   H13        1.0     0.562528     0.500832     0.673781    Uiso  ? H
   H14        1.0     0.329935     0.617074     0.558077    Uiso  ? H
   H15        1.0     0.445992     0.616995     0.674125    Uiso  ? H
