
#======================================================================
# CRYSTAL DATA
#----------------------------------------------------------------------
data_VESTA_phase_1

_chemical_name_common                  ' Ni H'
_cell_length_a                         15.517801
_cell_length_b                         15.517801
_cell_length_c                         15.517801
_cell_angle_alpha                      90.000000
_cell_angle_beta                       90.000000
_cell_angle_gamma                      90.000000
_cell_volume                           1.000000
_space_group_name_H-M_alt              'P 1'
_space_group_IT_number                 1

loop_
_space_group_symop_operation_xyz
   'x, y, z'

loop_
   _atom_site_label
   _atom_site_occupancy
   _atom_site_fract_x
   _atom_site_fract_y
   _atom_site_fract_z
   _atom_site_adp_type
   _atom_site_U_iso_or_equiv
   _atom_site_type_symbol
   Ni1        1.0     0.217245     0.270695     0.214472    Uiso  ? Ni
   Ni2        1.0     0.446067     0.270404     0.214182    Uiso  ? Ni
   Ni3        1.0     0.673921     0.271714     0.215469    Uiso  ? Ni
   Ni4        1.0     0.331605     0.499742     0.101056    Uiso  ? Ni
   Ni5        1.0     0.216307     0.500035     0.212195    Uiso  ? Ni
   Ni6        1.0     0.331456     0.384202     0.213252    Uiso  ? Ni
   Ni7        1.0     0.446070     0.385236     0.101599    Uiso  ? Ni
   Ni8        1.0     0.560512     0.500006     0.101662    Uiso  ? Ni
   Ni9        1.0     0.446661     0.499775     0.211624    Uiso  ? Ni
   Ni10       1.0     0.561042     0.384914     0.214147    Uiso  ? Ni
   Ni11       1.0     0.674813     0.500119     0.214541    Uiso  ? Ni
   Ni12       1.0     0.217044     0.729388     0.214707    Uiso  ? Ni
   Ni13       1.0     0.331321     0.615476     0.212264    Uiso  ? Ni
   Ni14       1.0     0.446254     0.614758     0.101381    Uiso  ? Ni
   Ni15       1.0     0.446281     0.729835     0.214227    Uiso  ? Ni
   Ni16       1.0     0.561261     0.615225     0.213879    Uiso  ? Ni
   Ni17       1.0     0.673869     0.728455     0.215542    Uiso  ? Ni
   Ni18       1.0     0.331418     0.269384     0.327724    Uiso  ? Ni
   Ni19       1.0     0.216227     0.268056     0.443374    Uiso  ? Ni
   Ni20       1.0     0.331458     0.156936     0.443312    Uiso  ? Ni
   Ni21       1.0     0.445962     0.157481     0.328778    Uiso  ? Ni
   Ni22       1.0     0.561005     0.269947     0.328153    Uiso  ? Ni
   Ni23       1.0     0.446279     0.267525     0.442952    Uiso  ? Ni
   Ni24       1.0     0.560480     0.157308     0.443316    Uiso  ? Ni
   Ni25       1.0     0.787294     0.271894     0.329579    Uiso  ? Ni
   Ni26       1.0     0.675081     0.270505     0.443362    Uiso  ? Ni
   Ni27       1.0     0.100331     0.500180     0.328530    Uiso  ? Ni
   Ni28       1.0     0.100338     0.384839     0.443509    Uiso  ? Ni
   Ni29       1.0     0.215749     0.382662     0.326202    Uiso  ? Ni
   Ni30       1.0     0.330973     0.498503     0.326039    Uiso  ? Ni
   Ni31       1.0     0.214595     0.501753     0.443565    Uiso  ? Ni
   Ni32       1.0     0.330670     0.382311     0.441585    Uiso  ? Ni
   Ni33       1.0     0.446791     0.382026     0.325378    Uiso  ? Ni
   Ni34       1.0     0.563474     0.500132     0.326051    Uiso  ? Ni
   Ni35       1.0     0.445968     0.500444     0.443318    Uiso  ? Ni
   Ni36       1.0     0.563389     0.382741     0.441551    Uiso  ? Ni
   Ni37       1.0     0.675425     0.385042     0.328252    Uiso  ? Ni
   Ni38       1.0     0.787417     0.500238     0.329105    Uiso  ? Ni
   Ni39       1.0     0.677453     0.500520     0.443388    Uiso  ? Ni
   Ni40       1.0     0.787719     0.385583     0.443396    Uiso  ? Ni
   Ni41       1.0     0.899505     0.500232     0.443789    Uiso  ? Ni
   Ni42       1.0     0.101585     0.615883     0.443820    Uiso  ? Ni
   Ni43       1.0     0.214258     0.617514     0.327937    Uiso  ? Ni
   Ni44       1.0     0.331248     0.732077     0.328452    Uiso  ? Ni
   Ni45       1.0     0.215807     0.730705     0.443835    Uiso  ? Ni
   Ni46       1.0     0.329286     0.617963     0.443620    Uiso  ? Ni
   Ni47       1.0     0.448294     0.617774     0.326122    Uiso  ? Ni
   Ni48       1.0     0.561308     0.730166     0.328685    Uiso  ? Ni
   Ni49       1.0     0.446654     0.732408     0.443812    Uiso  ? Ni
   Ni50       1.0     0.563774     0.617936     0.443548    Uiso  ? Ni
   Ni51       1.0     0.675003     0.615250     0.328645    Uiso  ? Ni
   Ni52       1.0     0.787118     0.728252     0.329727    Uiso  ? Ni
   Ni53       1.0     0.674911     0.729529     0.443792    Uiso  ? Ni
   Ni54       1.0     0.787382     0.614884     0.443748    Uiso  ? Ni
   Ni55       1.0     0.331242     0.843064     0.443877    Uiso  ? Ni
   Ni56       1.0     0.446289     0.842785     0.329170    Uiso  ? Ni
   Ni57       1.0     0.560578     0.842429     0.443888    Uiso  ? Ni
   Ni58       1.0     0.331070     0.267744     0.559168    Uiso  ? Ni
   Ni59       1.0     0.216912     0.270465     0.673504    Uiso  ? Ni
   Ni60       1.0     0.445934     0.156991     0.558468    Uiso  ? Ni
   Ni61       1.0     0.561207     0.268299     0.558735    Uiso  ? Ni
   Ni62       1.0     0.445984     0.269891     0.674090    Uiso  ? Ni
   Ni63       1.0     0.559945     0.157627     0.672532    Uiso  ? Ni
   Ni64       1.0     0.674182     0.157683     0.557928    Uiso  ? Ni
   Ni65       1.0     0.787553     0.271616     0.557906    Uiso  ? Ni
   Ni66       1.0     0.674183     0.271473     0.672500    Uiso  ? Ni
   Ni67       1.0     0.100000     0.500491     0.559117    Uiso  ? Ni
   Ni68       1.0     0.214262     0.382826     0.560857    Uiso  ? Ni
   Ni69       1.0     0.330623     0.500464     0.561348    Uiso  ? Ni
   Ni70       1.0     0.215856     0.500491     0.675898    Uiso  ? Ni
   Ni71       1.0     0.331075     0.384397     0.676442    Uiso  ? Ni
   Ni72       1.0     0.446614     0.382100     0.561473    Uiso  ? Ni
   Ni73       1.0     0.563793     0.502109     0.561243    Uiso  ? Ni
   Ni74       1.0     0.446633     0.500629     0.676730    Uiso  ? Ni
   Ni75       1.0     0.561240     0.385110     0.675651    Uiso  ? Ni
   Ni76       1.0     0.676952     0.385172     0.558714    Uiso  ? Ni
   Ni77       1.0     0.787673     0.500594     0.558410    Uiso  ? Ni
   Ni78       1.0     0.675176     0.500556     0.673579    Uiso  ? Ni
   Ni79       1.0     0.787549     0.386064     0.672375    Uiso  ? Ni
   Ni80       1.0     0.899681     0.386308     0.557709    Uiso  ? Ni
   Ni81       1.0     0.900000     0.500230     0.671613    Uiso  ? Ni
   Ni82       1.0     0.213896     0.617968     0.559771    Uiso  ? Ni
   Ni83       1.0     0.331129     0.732250     0.559280    Uiso  ? Ni
   Ni84       1.0     0.216894     0.729572     0.673221    Uiso  ? Ni
   Ni85       1.0     0.331164     0.616093     0.675915    Uiso  ? Ni
   Ni86       1.0     0.448242     0.618547     0.561600    Uiso  ? Ni
   Ni87       1.0     0.561447     0.730181     0.559000    Uiso  ? Ni
   Ni88       1.0     0.446283     0.730066     0.673766    Uiso  ? Ni
   Ni89       1.0     0.561386     0.615824     0.674300    Uiso  ? Ni
   Ni90       1.0     0.675418     0.615761     0.558945    Uiso  ? Ni
   Ni91       1.0     0.787272     0.728397     0.557992    Uiso  ? Ni
   Ni92       1.0     0.674021     0.728624     0.672356    Uiso  ? Ni
   Ni93       1.0     0.787278     0.614435     0.672132    Uiso  ? Ni
   Ni94       1.0     0.899885     0.614138     0.557725    Uiso  ? Ni
   Ni95       1.0     0.446317     0.842734     0.558633    Uiso  ? Ni
   Ni96       1.0     0.559998     0.842117     0.672234    Uiso  ? Ni
   Ni97       1.0     0.673882     0.842067     0.558043    Uiso  ? Ni
   Ni98       1.0     0.331532     0.271131     0.786710    Uiso  ? Ni
   Ni99       1.0     0.559970     0.271430     0.786419    Uiso  ? Ni
   Ni100      1.0     0.786928     0.272361     0.785410    Uiso  ? Ni
   Ni101      1.0     0.331408     0.500311     0.787412    Uiso  ? Ni
   Ni102      1.0     0.446006     0.385369     0.787181    Uiso  ? Ni
   Ni103      1.0     0.560639     0.500574     0.786850    Uiso  ? Ni
   Ni104      1.0     0.445837     0.500254     0.898666    Uiso  ? Ni
   Ni105      1.0     0.559737     0.386172     0.898780    Uiso  ? Ni
   Ni106      1.0     0.674211     0.386011     0.786361    Uiso  ? Ni
   Ni107      1.0     0.787246     0.500259     0.785766    Uiso  ? Ni
   Ni108      1.0     0.673471     0.500235     0.898944    Uiso  ? Ni
   Ni109      1.0     0.331615     0.729060     0.786536    Uiso  ? Ni
   Ni110      1.0     0.446231     0.615177     0.786854    Uiso  ? Ni
   Ni111      1.0     0.559996     0.728629     0.786133    Uiso  ? Ni
   Ni112      1.0     0.559723     0.614291     0.898944    Uiso  ? Ni
   Ni113      1.0     0.673972     0.614494     0.786097    Uiso  ? Ni
   Ni114      1.0     0.786874     0.727880     0.785357    Uiso  ? Ni
   H1         1.0     0.446915     0.500711     0.560953    Uiso  ? H
   H2         1.0     0.215550     0.500093     0.327848    Uiso  ? H
   H3         1.0     0.215423     0.384214     0.443108    Uiso  ? H
   H4         1.0     0.446906     0.499453     0.326588    Uiso  ? H
   H5         1.0     0.446200     0.383192     0.442604    Uiso  ? H
   H6         1.0     0.563345     0.500790     0.443216    Uiso  ? H
   H7         1.0     0.330879     0.615994     0.327977    Uiso  ? H
   H8         1.0     0.446975     0.617304     0.443851    Uiso  ? H
   H9         1.0     0.330741     0.383591     0.559795    Uiso  ? H
   H10        1.0     0.214675     0.500831     0.559730    Uiso  ? H
   H11        1.0     0.562589     0.384282     0.559432    Uiso  ? H
   H12        1.0     0.330621     0.616913     0.559756    Uiso  ? H
