
#======================================================================
# CRYSTAL DATA
#----------------------------------------------------------------------
data_VESTA_phase_1

_chemical_name_common                  ' Ni H'
_cell_length_a                         15.520734
_cell_length_b                         15.520734
_cell_length_c                         15.520734
_cell_angle_alpha                      90.000000
_cell_angle_beta                       90.000000
_cell_angle_gamma                      90.000000
_cell_volume                           1.000000
_space_group_name_H-M_alt              'P 1'
_space_group_IT_number                 1

loop_
_space_group_symop_operation_xyz
   'x, y, z'

loop_
   _atom_site_label
   _atom_site_occupancy
   _atom_site_fract_x
   _atom_site_fract_y
   _atom_site_fract_z
   _atom_site_adp_type
   _atom_site_U_iso_or_equiv
   _atom_site_type_symbol
   Ni1        1.0     0.217412     0.270378     0.214386    Uiso  ? Ni
   Ni2        1.0     0.446216     0.270069     0.214071    Uiso  ? Ni
   Ni3        1.0     0.673938     0.271343     0.215346    Uiso  ? Ni
   Ni4        1.0     0.331673     0.499330     0.100898    Uiso  ? Ni
   Ni5        1.0     0.216361     0.499616     0.211992    Uiso  ? Ni
   Ni6        1.0     0.331644     0.383796     0.213165    Uiso  ? Ni
   Ni7        1.0     0.446141     0.384832     0.101404    Uiso  ? Ni
   Ni8        1.0     0.560595     0.499604     0.101512    Uiso  ? Ni
   Ni9        1.0     0.446734     0.499267     0.211380    Uiso  ? Ni
   Ni10       1.0     0.561131     0.384371     0.213813    Uiso  ? Ni
   Ni11       1.0     0.674930     0.499519     0.214310    Uiso  ? Ni
   Ni12       1.0     0.216978     0.729084     0.214384    Uiso  ? Ni
   Ni13       1.0     0.331241     0.615092     0.211882    Uiso  ? Ni
   Ni14       1.0     0.446344     0.614374     0.101279    Uiso  ? Ni
   Ni15       1.0     0.446276     0.729578     0.213903    Uiso  ? Ni
   Ni16       1.0     0.561383     0.614717     0.213778    Uiso  ? Ni
   Ni17       1.0     0.674055     0.728119     0.215222    Uiso  ? Ni
   Ni18       1.0     0.331660     0.269078     0.327670    Uiso  ? Ni
   Ni19       1.0     0.216386     0.267715     0.443231    Uiso  ? Ni
   Ni20       1.0     0.331736     0.156770     0.443221    Uiso  ? Ni
   Ni21       1.0     0.446173     0.157306     0.328760    Uiso  ? Ni
   Ni22       1.0     0.561146     0.269791     0.328321    Uiso  ? Ni
   Ni23       1.0     0.446800     0.267288     0.443074    Uiso  ? Ni
   Ni24       1.0     0.560651     0.157407     0.443525    Uiso  ? Ni
   Ni25       1.0     0.787259     0.271506     0.329497    Uiso  ? Ni
   Ni26       1.0     0.674952     0.270274     0.443449    Uiso  ? Ni
   Ni27       1.0     0.100355     0.499763     0.328282    Uiso  ? Ni
   Ni28       1.0     0.100416     0.384416     0.443304    Uiso  ? Ni
   Ni29       1.0     0.215921     0.382270     0.326111    Uiso  ? Ni
   Ni30       1.0     0.330990     0.498008     0.325788    Uiso  ? Ni
   Ni31       1.0     0.214480     0.501228     0.443253    Uiso  ? Ni
   Ni32       1.0     0.331052     0.381736     0.441589    Uiso  ? Ni
   Ni33       1.0     0.447197     0.381490     0.325415    Uiso  ? Ni
   Ni34       1.0     0.563618     0.499017     0.325721    Uiso  ? Ni
   Ni35       1.0     0.446104     0.499116     0.442606    Uiso  ? Ni
   Ni36       1.0     0.563621     0.381769     0.442864    Uiso  ? Ni
   Ni37       1.0     0.675251     0.384390     0.328360    Uiso  ? Ni
   Ni38       1.0     0.787558     0.499510     0.328823    Uiso  ? Ni
   Ni39       1.0     0.677670     0.499110     0.443000    Uiso  ? Ni
   Ni40       1.0     0.787550     0.384838     0.443477    Uiso  ? Ni
   Ni41       1.0     0.899572     0.499557     0.443547    Uiso  ? Ni
   Ni42       1.0     0.101525     0.615512     0.443452    Uiso  ? Ni
   Ni43       1.0     0.214040     0.617139     0.327474    Uiso  ? Ni
   Ni44       1.0     0.331040     0.731884     0.327912    Uiso  ? Ni
   Ni45       1.0     0.215548     0.730530     0.443347    Uiso  ? Ni
   Ni46       1.0     0.328610     0.617580     0.442615    Uiso  ? Ni
   Ni47       1.0     0.448030     0.617336     0.325366    Uiso  ? Ni
   Ni48       1.0     0.561421     0.730136     0.327898    Uiso  ? Ni
   Ni49       1.0     0.446286     0.732691     0.442541    Uiso  ? Ni
   Ni50       1.0     0.564166     0.617100     0.441137    Uiso  ? Ni
   Ni51       1.0     0.675552     0.614640     0.327879    Uiso  ? Ni
   Ni52       1.0     0.787392     0.727922     0.329286    Uiso  ? Ni
   Ni53       1.0     0.675438     0.729472     0.443009    Uiso  ? Ni
   Ni54       1.0     0.787869     0.614197     0.443023    Uiso  ? Ni
   Ni55       1.0     0.330965     0.843077     0.443305    Uiso  ? Ni
   Ni56       1.0     0.446212     0.842804     0.328537    Uiso  ? Ni
   Ni57       1.0     0.560693     0.842723     0.443003    Uiso  ? Ni
   Ni58       1.0     0.331537     0.267524     0.558955    Uiso  ? Ni
   Ni59       1.0     0.216931     0.269968     0.673266    Uiso  ? Ni
   Ni60       1.0     0.446489     0.157158     0.558333    Uiso  ? Ni
   Ni61       1.0     0.561581     0.269550     0.558602    Uiso  ? Ni
   Ni62       1.0     0.446462     0.269774     0.673612    Uiso  ? Ni
   Ni63       1.0     0.560106     0.157764     0.672012    Uiso  ? Ni
   Ni64       1.0     0.673962     0.157763     0.557762    Uiso  ? Ni
   Ni65       1.0     0.787377     0.271351     0.557709    Uiso  ? Ni
   Ni66       1.0     0.674221     0.271059     0.672112    Uiso  ? Ni
   Ni67       1.0     0.100000     0.500005     0.558864    Uiso  ? Ni
   Ni68       1.0     0.214245     0.382203     0.560612    Uiso  ? Ni
   Ni69       1.0     0.330414     0.499119     0.560651    Uiso  ? Ni
   Ni70       1.0     0.215460     0.499548     0.675708    Uiso  ? Ni
   Ni71       1.0     0.331180     0.383298     0.675997    Uiso  ? Ni
   Ni72       1.0     0.448468     0.380858     0.560901    Uiso  ? Ni
   Ni73       1.0     0.564243     0.497329     0.560600    Uiso  ? Ni
   Ni74       1.0     0.446744     0.497301     0.676516    Uiso  ? Ni
   Ni75       1.0     0.561810     0.383513     0.674074    Uiso  ? Ni
   Ni76       1.0     0.675565     0.383846     0.558521    Uiso  ? Ni
   Ni77       1.0     0.787819     0.499097     0.558113    Uiso  ? Ni
   Ni78       1.0     0.675677     0.498838     0.673353    Uiso  ? Ni
   Ni79       1.0     0.787442     0.385203     0.671887    Uiso  ? Ni
   Ni80       1.0     0.899964     0.385630     0.557499    Uiso  ? Ni
   Ni81       1.0     0.900000     0.499556     0.671406    Uiso  ? Ni
   Ni82       1.0     0.213492     0.617500     0.559169    Uiso  ? Ni
   Ni83       1.0     0.330254     0.732455     0.558520    Uiso  ? Ni
   Ni84       1.0     0.216352     0.729577     0.673018    Uiso  ? Ni
   Ni85       1.0     0.328935     0.615501     0.675831    Uiso  ? Ni
   Ni86       1.0     0.446622     0.617898     0.559135    Uiso  ? Ni
   Ni87       1.0     0.561782     0.731890     0.558141    Uiso  ? Ni
   Ni88       1.0     0.445895     0.731604     0.673666    Uiso  ? Ni
   Ni89       1.0     0.563096     0.614640     0.675324    Uiso  ? Ni
   Ni90       1.0     0.677506     0.614622     0.558225    Uiso  ? Ni
   Ni91       1.0     0.787749     0.728290     0.557634    Uiso  ? Ni
   Ni92       1.0     0.674748     0.728714     0.672296    Uiso  ? Ni
   Ni93       1.0     0.787607     0.613725     0.672199    Uiso  ? Ni
   Ni94       1.0     0.899666     0.613492     0.557489    Uiso  ? Ni
   Ni95       1.0     0.445898     0.843230     0.557903    Uiso  ? Ni
   Ni96       1.0     0.560354     0.842610     0.672287    Uiso  ? Ni
   Ni97       1.0     0.674492     0.842359     0.557636    Uiso  ? Ni
   Ni98       1.0     0.331665     0.270613     0.786523    Uiso  ? Ni
   Ni99       1.0     0.560195     0.271063     0.786065    Uiso  ? Ni
   Ni100      1.0     0.787001     0.271864     0.785182    Uiso  ? Ni
   Ni101      1.0     0.331057     0.499212     0.787626    Uiso  ? Ni
   Ni102      1.0     0.446385     0.384124     0.787188    Uiso  ? Ni
   Ni103      1.0     0.561100     0.498843     0.787068    Uiso  ? Ni
   Ni104      1.0     0.445890     0.499111     0.899045    Uiso  ? Ni
   Ni105      1.0     0.559958     0.385319     0.899007    Uiso  ? Ni
   Ni106      1.0     0.674218     0.385125     0.786017    Uiso  ? Ni
   Ni107      1.0     0.787421     0.499442     0.785657    Uiso  ? Ni
   Ni108      1.0     0.673753     0.499451     0.898967    Uiso  ? Ni
   Ni109      1.0     0.331131     0.729003     0.786802    Uiso  ? Ni
   Ni110      1.0     0.445910     0.614327     0.788994    Uiso  ? Ni
   Ni111      1.0     0.560328     0.728689     0.786526    Uiso  ? Ni
   Ni112      1.0     0.560213     0.613628     0.899103    Uiso  ? Ni
   Ni113      1.0     0.674771     0.613771     0.786549    Uiso  ? Ni
   Ni114      1.0     0.787114     0.727538     0.785306    Uiso  ? Ni
   H1         1.0     0.447000     0.498592     0.559894    Uiso  ? H
   H2         1.0     0.215572     0.499683     0.327601    Uiso  ? H
   H3         1.0     0.215722     0.383803     0.442942    Uiso  ? H
   H4         1.0     0.446945     0.498943     0.326085    Uiso  ? H
   H5         1.0     0.446956     0.382328     0.442665    Uiso  ? H
   H6         1.0     0.563479     0.499058     0.442740    Uiso  ? H
   H7         1.0     0.330628     0.615632     0.327174    Uiso  ? H
   H8         1.0     0.446421     0.616693     0.442240    Uiso  ? H
   H9         1.0     0.331349     0.382849     0.559632    Uiso  ? H
   H10        1.0     0.214664     0.500221     0.559585    Uiso  ? H
   H11        1.0     0.329575     0.616250     0.558623    Uiso  ? H
   H12        1.0     0.563222     0.615514     0.558705    Uiso  ? H
   H13        1.0     0.445927     0.614778     0.675231    Uiso  ? H
