
#======================================================================
# CRYSTAL DATA
#----------------------------------------------------------------------
data_VESTA_phase_1

_chemical_name_common                  ' Ni H'
_cell_length_a                         15.485001
_cell_length_b                         15.485001
_cell_length_c                         15.485001
_cell_angle_alpha                      90.000000
_cell_angle_beta                       90.000000
_cell_angle_gamma                      90.000000
_cell_volume                           1.000000
_space_group_name_H-M_alt              'P 1'
_space_group_IT_number                 1

loop_
_space_group_symop_operation_xyz
   'x, y, z'

loop_
   _atom_site_label
   _atom_site_occupancy
   _atom_site_fract_x
   _atom_site_fract_y
   _atom_site_fract_z
   _atom_site_adp_type
   _atom_site_U_iso_or_equiv
   _atom_site_type_symbol
   Ni1        1.0     0.216761     0.270888     0.213898    Uiso  ? Ni
   Ni2        1.0     0.445446     0.270818     0.213859    Uiso  ? Ni
   Ni3        1.0     0.673243     0.271896     0.214905    Uiso  ? Ni
   Ni4        1.0     0.331193     0.500277     0.100363    Uiso  ? Ni
   Ni5        1.0     0.216314     0.500257     0.211619    Uiso  ? Ni
   Ni6        1.0     0.331083     0.385038     0.213142    Uiso  ? Ni
   Ni7        1.0     0.445456     0.385630     0.100802    Uiso  ? Ni
   Ni8        1.0     0.559748     0.500282     0.100781    Uiso  ? Ni
   Ni9        1.0     0.445911     0.500558     0.211936    Uiso  ? Ni
   Ni10       1.0     0.560186     0.385589     0.214024    Uiso  ? Ni
   Ni11       1.0     0.673679     0.500293     0.214521    Uiso  ? Ni
   Ni12       1.0     0.216862     0.729423     0.213994    Uiso  ? Ni
   Ni13       1.0     0.331413     0.615494     0.213498    Uiso  ? Ni
   Ni14       1.0     0.445459     0.614905     0.100652    Uiso  ? Ni
   Ni15       1.0     0.445466     0.729266     0.214265    Uiso  ? Ni
   Ni16       1.0     0.559873     0.614958     0.214401    Uiso  ? Ni
   Ni17       1.0     0.673159     0.728430     0.215001    Uiso  ? Ni
   Ni18       1.0     0.331031     0.270064     0.327952    Uiso  ? Ni
   Ni19       1.0     0.216208     0.268849     0.443427    Uiso  ? Ni
   Ni20       1.0     0.330956     0.157163     0.443153    Uiso  ? Ni
   Ni21       1.0     0.445368     0.157480     0.328411    Uiso  ? Ni
   Ni22       1.0     0.560172     0.270741     0.328302    Uiso  ? Ni
   Ni23       1.0     0.445752     0.268370     0.442940    Uiso  ? Ni
   Ni24       1.0     0.559768     0.157413     0.442988    Uiso  ? Ni
   Ni25       1.0     0.786780     0.272007     0.328989    Uiso  ? Ni
   Ni26       1.0     0.673849     0.271189     0.442887    Uiso  ? Ni
   Ni27       1.0     0.100066     0.500206     0.328089    Uiso  ? Ni
   Ni28       1.0     0.100078     0.385052     0.443532    Uiso  ? Ni
   Ni29       1.0     0.215951     0.383155     0.326252    Uiso  ? Ni
   Ni30       1.0     0.330886     0.500567     0.327033    Uiso  ? Ni
   Ni31       1.0     0.215206     0.500401     0.444872    Uiso  ? Ni
   Ni32       1.0     0.330934     0.384034     0.443285    Uiso  ? Ni
   Ni33       1.0     0.446137     0.383184     0.325951    Uiso  ? Ni
   Ni34       1.0     0.562174     0.500544     0.328002    Uiso  ? Ni
   Ni35       1.0     0.446252     0.501852     0.442522    Uiso  ? Ni
   Ni36       1.0     0.562213     0.384577     0.442485    Uiso  ? Ni
   Ni37       1.0     0.674070     0.385529     0.328363    Uiso  ? Ni
   Ni38       1.0     0.786762     0.500239     0.328747    Uiso  ? Ni
   Ni39       1.0     0.674766     0.500498     0.442385    Uiso  ? Ni
   Ni40       1.0     0.786757     0.385910     0.442834    Uiso  ? Ni
   Ni41       1.0     0.899931     0.500163     0.442890    Uiso  ? Ni
   Ni42       1.0     0.100000     0.615353     0.443426    Uiso  ? Ni
   Ni43       1.0     0.216171     0.617275     0.326391    Uiso  ? Ni
   Ni44       1.0     0.331278     0.730046     0.328190    Uiso  ? Ni
   Ni45       1.0     0.216432     0.731331     0.443264    Uiso  ? Ni
   Ni46       1.0     0.332212     0.616679     0.442816    Uiso  ? Ni
   Ni47       1.0     0.446172     0.617689     0.327681    Uiso  ? Ni
   Ni48       1.0     0.559974     0.729415     0.328519    Uiso  ? Ni
   Ni49       1.0     0.445829     0.730411     0.442484    Uiso  ? Ni
   Ni50       1.0     0.560852     0.616178     0.442140    Uiso  ? Ni
   Ni51       1.0     0.673856     0.614997     0.328590    Uiso  ? Ni
   Ni52       1.0     0.786804     0.728353     0.328975    Uiso  ? Ni
   Ni53       1.0     0.673639     0.728958     0.442719    Uiso  ? Ni
   Ni54       1.0     0.787022     0.614554     0.442722    Uiso  ? Ni
   Ni55       1.0     0.331272     0.842837     0.442943    Uiso  ? Ni
   Ni56       1.0     0.445384     0.842486     0.328662    Uiso  ? Ni
   Ni57       1.0     0.559499     0.842611     0.442776    Uiso  ? Ni
   Ni58       1.0     0.330475     0.270171     0.558261    Uiso  ? Ni
   Ni59       1.0     0.216402     0.270937     0.672199    Uiso  ? Ni
   Ni60       1.0     0.445193     0.157585     0.557767    Uiso  ? Ni
   Ni61       1.0     0.560137     0.270448     0.557333    Uiso  ? Ni
   Ni62       1.0     0.444869     0.270514     0.672396    Uiso  ? Ni
   Ni63       1.0     0.559227     0.158159     0.671392    Uiso  ? Ni
   Ni64       1.0     0.673289     0.157968     0.557151    Uiso  ? Ni
   Ni65       1.0     0.786973     0.271821     0.556996    Uiso  ? Ni
   Ni66       1.0     0.673754     0.271298     0.671342    Uiso  ? Ni
   Ni67       1.0     0.101704     0.500147     0.558689    Uiso  ? Ni
   Ni68       1.0     0.215665     0.384553     0.560387    Uiso  ? Ni
   Ni69       1.0     0.328555     0.500220     0.558722    Uiso  ? Ni
   Ni70       1.0     0.215752     0.499871     0.672788    Uiso  ? Ni
   Ni71       1.0     0.329821     0.384486     0.672892    Uiso  ? Ni
   Ni72       1.0     0.445396     0.382761     0.559496    Uiso  ? Ni
   Ni73       1.0     0.562396     0.500189     0.555745    Uiso  ? Ni
   Ni74       1.0     0.443370     0.498497     0.674129    Uiso  ? Ni
   Ni75       1.0     0.560375     0.383165     0.672253    Uiso  ? Ni
   Ni76       1.0     0.674512     0.385072     0.557162    Uiso  ? Ni
   Ni77       1.0     0.787161     0.500182     0.556689    Uiso  ? Ni
   Ni78       1.0     0.676094     0.499904     0.671641    Uiso  ? Ni
   Ni79       1.0     0.787344     0.385567     0.671172    Uiso  ? Ni
   Ni80       1.0     0.899992     0.386177     0.556863    Uiso  ? Ni
   Ni81       1.0     0.899872     0.500183     0.670849    Uiso  ? Ni
   Ni82       1.0     0.215600     0.615785     0.559832    Uiso  ? Ni
   Ni83       1.0     0.330479     0.730150     0.557529    Uiso  ? Ni
   Ni84       1.0     0.216189     0.729583     0.672044    Uiso  ? Ni
   Ni85       1.0     0.328559     0.615458     0.672593    Uiso  ? Ni
   Ni86       1.0     0.445551     0.617731     0.556164    Uiso  ? Ni
   Ni87       1.0     0.560224     0.729966     0.556637    Uiso  ? Ni
   Ni88       1.0     0.444929     0.731536     0.671879    Uiso  ? Ni
   Ni89       1.0     0.561700     0.616758     0.671817    Uiso  ? Ni
   Ni90       1.0     0.674512     0.615296     0.556510    Uiso  ? Ni
   Ni91       1.0     0.786982     0.728532     0.556866    Uiso  ? Ni
   Ni92       1.0     0.673991     0.729256     0.671181    Uiso  ? Ni
   Ni93       1.0     0.787107     0.614684     0.671058    Uiso  ? Ni
   Ni94       1.0     0.900000     0.614173     0.556880    Uiso  ? Ni
   Ni95       1.0     0.445220     0.842782     0.556876    Uiso  ? Ni
   Ni96       1.0     0.559560     0.842576     0.671182    Uiso  ? Ni
   Ni97       1.0     0.673326     0.842407     0.556910    Uiso  ? Ni
   Ni98       1.0     0.330664     0.271484     0.785579    Uiso  ? Ni
   Ni99       1.0     0.559261     0.271340     0.785719    Uiso  ? Ni
   Ni100      1.0     0.786806     0.272068     0.784979    Uiso  ? Ni
   Ni101      1.0     0.329690     0.499785     0.786455    Uiso  ? Ni
   Ni102      1.0     0.444756     0.384722     0.786357    Uiso  ? Ni
   Ni103      1.0     0.559869     0.499799     0.787965    Uiso  ? Ni
   Ni104      1.0     0.444534     0.499696     0.899405    Uiso  ? Ni
   Ni105      1.0     0.559077     0.385521     0.899276    Uiso  ? Ni
   Ni106      1.0     0.673695     0.385528     0.785659    Uiso  ? Ni
   Ni107      1.0     0.787267     0.500113     0.785455    Uiso  ? Ni
   Ni108      1.0     0.673471     0.500050     0.899338    Uiso  ? Ni
   Ni109      1.0     0.330447     0.729066     0.785798    Uiso  ? Ni
   Ni110      1.0     0.444750     0.615087     0.788131    Uiso  ? Ni
   Ni111      1.0     0.559500     0.729190     0.785907    Uiso  ? Ni
   Ni112      1.0     0.559394     0.614587     0.899637    Uiso  ? Ni
   Ni113      1.0     0.673912     0.614655     0.785867    Uiso  ? Ni
   Ni114      1.0     0.786797     0.728265     0.784973    Uiso  ? Ni
   H1         1.0     0.444413     0.500276     0.557346    Uiso  ? H
   H2         1.0     0.215760     0.500133     0.327226    Uiso  ? H
   H3         1.0     0.215913     0.384389     0.443915    Uiso  ? H
   H4         1.0     0.446180     0.501020     0.326939    Uiso  ? H
   H5         1.0     0.446388     0.384063     0.442639    Uiso  ? H
   H6         1.0     0.216490     0.616060     0.443731    Uiso  ? H
   H7         1.0     0.560808     0.499350     0.672373    Uiso  ? H
   H8         1.0     0.444551     0.616130     0.672745    Uiso  ? H
