
#======================================================================
# CRYSTAL DATA
#----------------------------------------------------------------------
data_VESTA_phase_1

_chemical_name_common                  ' Ni H'
_cell_length_a                         15.496641
_cell_length_b                         15.496641
_cell_length_c                         15.496641
_cell_angle_alpha                      90.000000
_cell_angle_beta                       90.000000
_cell_angle_gamma                      90.000000
_cell_volume                           1.000000
_space_group_name_H-M_alt              'P 1'
_space_group_IT_number                 1

loop_
_space_group_symop_operation_xyz
   'x, y, z'

loop_
   _atom_site_label
   _atom_site_occupancy
   _atom_site_fract_x
   _atom_site_fract_y
   _atom_site_fract_z
   _atom_site_adp_type
   _atom_site_U_iso_or_equiv
   _atom_site_type_symbol
   Ni1        1.0     0.216502     0.270635     0.214760    Uiso  ? Ni
   Ni2        1.0     0.445396     0.270461     0.214559    Uiso  ? Ni
   Ni3        1.0     0.673013     0.271194     0.215216    Uiso  ? Ni
   Ni4        1.0     0.331183     0.499400     0.100507    Uiso  ? Ni
   Ni5        1.0     0.215767     0.499403     0.212497    Uiso  ? Ni
   Ni6        1.0     0.331033     0.384250     0.212511    Uiso  ? Ni
   Ni7        1.0     0.445516     0.385050     0.101050    Uiso  ? Ni
   Ni8        1.0     0.559408     0.499405     0.101579    Uiso  ? Ni
   Ni9        1.0     0.445840     0.499019     0.213354    Uiso  ? Ni
   Ni10       1.0     0.559815     0.384461     0.214151    Uiso  ? Ni
   Ni11       1.0     0.673655     0.499270     0.214552    Uiso  ? Ni
   Ni12       1.0     0.216277     0.728517     0.214531    Uiso  ? Ni
   Ni13       1.0     0.330676     0.614581     0.211998    Uiso  ? Ni
   Ni14       1.0     0.445563     0.613796     0.101261    Uiso  ? Ni
   Ni15       1.0     0.445350     0.728866     0.214168    Uiso  ? Ni
   Ni16       1.0     0.560134     0.614177     0.213998    Uiso  ? Ni
   Ni17       1.0     0.673232     0.727921     0.214998    Uiso  ? Ni
   Ni18       1.0     0.330883     0.268596     0.329100    Uiso  ? Ni
   Ni19       1.0     0.215917     0.270092     0.444142    Uiso  ? Ni
   Ni20       1.0     0.330702     0.157256     0.443822    Uiso  ? Ni
   Ni21       1.0     0.445312     0.157213     0.329237    Uiso  ? Ni
   Ni22       1.0     0.559794     0.269939     0.328544    Uiso  ? Ni
   Ni23       1.0     0.444936     0.269760     0.443256    Uiso  ? Ni
   Ni24       1.0     0.559080     0.157718     0.443343    Uiso  ? Ni
   Ni25       1.0     0.786608     0.271329     0.329205    Uiso  ? Ni
   Ni26       1.0     0.673708     0.270425     0.443107    Uiso  ? Ni
   Ni27       1.0     0.100000     0.499383     0.329338    Uiso  ? Ni
   Ni28       1.0     0.101955     0.384653     0.444245    Uiso  ? Ni
   Ni29       1.0     0.214277     0.382703     0.329179    Uiso  ? Ni
   Ni30       1.0     0.331358     0.499132     0.327564    Uiso  ? Ni
   Ni31       1.0     0.214764     0.498886     0.445559    Uiso  ? Ni
   Ni32       1.0     0.329498     0.382893     0.445547    Uiso  ? Ni
   Ni33       1.0     0.447349     0.383007     0.327724    Uiso  ? Ni
   Ni34       1.0     0.560632     0.498696     0.325885    Uiso  ? Ni
   Ni35       1.0     0.443424     0.496774     0.441363    Uiso  ? Ni
   Ni36       1.0     0.560378     0.381539     0.442568    Uiso  ? Ni
   Ni37       1.0     0.673592     0.384443     0.328480    Uiso  ? Ni
   Ni38       1.0     0.787207     0.499249     0.328464    Uiso  ? Ni
   Ni39       1.0     0.676455     0.498628     0.442059    Uiso  ? Ni
   Ni40       1.0     0.787281     0.384595     0.442949    Uiso  ? Ni
   Ni41       1.0     0.899729     0.499379     0.443069    Uiso  ? Ni
   Ni42       1.0     0.102091     0.614104     0.444178    Uiso  ? Ni
   Ni43       1.0     0.213662     0.616130     0.328696    Uiso  ? Ni
   Ni44       1.0     0.330372     0.730753     0.328570    Uiso  ? Ni
   Ni45       1.0     0.215364     0.729277     0.443946    Uiso  ? Ni
   Ni46       1.0     0.327360     0.615237     0.444849    Uiso  ? Ni
   Ni47       1.0     0.447017     0.615190     0.325903    Uiso  ? Ni
   Ni48       1.0     0.560119     0.729611     0.327792    Uiso  ? Ni
   Ni49       1.0     0.444632     0.731529     0.442555    Uiso  ? Ni
   Ni50       1.0     0.562157     0.616274     0.440604    Uiso  ? Ni
   Ni51       1.0     0.674340     0.614124     0.327726    Uiso  ? Ni
   Ni52       1.0     0.786842     0.727787     0.328948    Uiso  ? Ni
   Ni53       1.0     0.674448     0.729155     0.442632    Uiso  ? Ni
   Ni54       1.0     0.787466     0.613975     0.442540    Uiso  ? Ni
   Ni55       1.0     0.330042     0.842660     0.443522    Uiso  ? Ni
   Ni56       1.0     0.445192     0.842674     0.328540    Uiso  ? Ni
   Ni57       1.0     0.559541     0.842559     0.442736    Uiso  ? Ni
   Ni58       1.0     0.329942     0.269833     0.558244    Uiso  ? Ni
   Ni59       1.0     0.216278     0.270798     0.671762    Uiso  ? Ni
   Ni60       1.0     0.444833     0.157815     0.557604    Uiso  ? Ni
   Ni61       1.0     0.559528     0.269949     0.557589    Uiso  ? Ni
   Ni62       1.0     0.444366     0.270205     0.672237    Uiso  ? Ni
   Ni63       1.0     0.558841     0.157909     0.671493    Uiso  ? Ni
   Ni64       1.0     0.672947     0.157709     0.557362    Uiso  ? Ni
   Ni65       1.0     0.787022     0.270992     0.557286    Uiso  ? Ni
   Ni66       1.0     0.673527     0.270610     0.671622    Uiso  ? Ni
   Ni67       1.0     0.102449     0.499299     0.558313    Uiso  ? Ni
   Ni68       1.0     0.215311     0.383939     0.558591    Uiso  ? Ni
   Ni69       1.0     0.327118     0.498284     0.558964    Uiso  ? Ni
   Ni70       1.0     0.215455     0.498882     0.672256    Uiso  ? Ni
   Ni71       1.0     0.329205     0.383580     0.672273    Uiso  ? Ni
   Ni72       1.0     0.444267     0.381236     0.558225    Uiso  ? Ni
   Ni73       1.0     0.561799     0.496719     0.557578    Uiso  ? Ni
   Ni74       1.0     0.442312     0.496754     0.674712    Uiso  ? Ni
   Ni75       1.0     0.559710     0.381764     0.672756    Uiso  ? Ni
   Ni76       1.0     0.674754     0.383458     0.557469    Uiso  ? Ni
   Ni77       1.0     0.787761     0.498918     0.557262    Uiso  ? Ni
   Ni78       1.0     0.676339     0.498645     0.672610    Uiso  ? Ni
   Ni79       1.0     0.787353     0.384643     0.671547    Uiso  ? Ni
   Ni80       1.0     0.900000     0.385286     0.557179    Uiso  ? Ni
   Ni81       1.0     0.899820     0.499383     0.671265    Uiso  ? Ni
   Ni82       1.0     0.214850     0.614474     0.558566    Uiso  ? Ni
   Ni83       1.0     0.328920     0.729983     0.558160    Uiso  ? Ni
   Ni84       1.0     0.215783     0.728491     0.671903    Uiso  ? Ni
   Ni85       1.0     0.327159     0.614427     0.672807    Uiso  ? Ni
   Ni86       1.0     0.442670     0.616341     0.558004    Uiso  ? Ni
   Ni87       1.0     0.560123     0.731407     0.557472    Uiso  ? Ni
   Ni88       1.0     0.444084     0.731141     0.672743    Uiso  ? Ni
   Ni89       1.0     0.561497     0.616069     0.674537    Uiso  ? Ni
   Ni90       1.0     0.676718     0.614603     0.557402    Uiso  ? Ni
   Ni91       1.0     0.787406     0.728311     0.557256    Uiso  ? Ni
   Ni92       1.0     0.674260     0.728964     0.671987    Uiso  ? Ni
   Ni93       1.0     0.787534     0.613937     0.671915    Uiso  ? Ni
   Ni94       1.0     0.899683     0.613487     0.557169    Uiso  ? Ni
   Ni95       1.0     0.444428     0.842787     0.557532    Uiso  ? Ni
   Ni96       1.0     0.559304     0.842364     0.671980    Uiso  ? Ni
   Ni97       1.0     0.673650     0.842243     0.557314    Uiso  ? Ni
   Ni98       1.0     0.330375     0.271040     0.785500    Uiso  ? Ni
   Ni99       1.0     0.558898     0.270648     0.785954    Uiso  ? Ni
   Ni100      1.0     0.786589     0.271434     0.785170    Uiso  ? Ni
   Ni101      1.0     0.329130     0.498866     0.786515    Uiso  ? Ni
   Ni102      1.0     0.444205     0.383815     0.786623    Uiso  ? Ni
   Ni103      1.0     0.559508     0.498631     0.788472    Uiso  ? Ni
   Ni104      1.0     0.444170     0.498924     0.899430    Uiso  ? Ni
   Ni105      1.0     0.558781     0.384739     0.899398    Uiso  ? Ni
   Ni106      1.0     0.673463     0.384642     0.785922    Uiso  ? Ni
   Ni107      1.0     0.787297     0.499255     0.785875    Uiso  ? Ni
   Ni108      1.0     0.673280     0.499262     0.899421    Uiso  ? Ni
   Ni109      1.0     0.329925     0.728256     0.785929    Uiso  ? Ni
   Ni110      1.0     0.443936     0.614204     0.788455    Uiso  ? Ni
   Ni111      1.0     0.559232     0.728917     0.786621    Uiso  ? Ni
   Ni112      1.0     0.559097     0.613844     0.899493    Uiso  ? Ni
   Ni113      1.0     0.674189     0.613921     0.786619    Uiso  ? Ni
   Ni114      1.0     0.786801     0.727674     0.785386    Uiso  ? Ni
   H1         1.0     0.442944     0.497391     0.557672    Uiso  ? H
   H2         1.0     0.331707     0.383814     0.329420    Uiso  ? H
   H3         1.0     0.214689     0.499386     0.329207    Uiso  ? H
   H4         1.0     0.560561     0.497963     0.440922    Uiso  ? H
   H5         1.0     0.330303     0.615304     0.327732    Uiso  ? H
   H6         1.0     0.444387     0.614956     0.441863    Uiso  ? H
   H7         1.0     0.560234     0.498003     0.673769    Uiso  ? H
   H8         1.0     0.561061     0.615344     0.557623    Uiso  ? H
   H9         1.0     0.443413     0.614830     0.673924    Uiso  ? H
