
#======================================================================
# CRYSTAL DATA
#----------------------------------------------------------------------
data_VESTA_phase_1

_chemical_name_common                  ' Ni H'
_cell_length_a                         15.480146
_cell_length_b                         15.480146
_cell_length_c                         15.480146
_cell_angle_alpha                      90.000000
_cell_angle_beta                       90.000000
_cell_angle_gamma                      90.000000
_cell_volume                           1.000000
_space_group_name_H-M_alt              'P 1'
_space_group_IT_number                 1

loop_
_space_group_symop_operation_xyz
   'x, y, z'

loop_
   _atom_site_label
   _atom_site_occupancy
   _atom_site_fract_x
   _atom_site_fract_y
   _atom_site_fract_z
   _atom_site_adp_type
   _atom_site_U_iso_or_equiv
   _atom_site_type_symbol
   Ni1        1.0     0.216431     0.271862     0.213949    Uiso  ? Ni
   Ni2        1.0     0.444310     0.271624     0.213753    Uiso  ? Ni
   Ni3        1.0     0.672557     0.271861     0.213940    Uiso  ? Ni
   Ni4        1.0     0.330383     0.500083     0.100747    Uiso  ? Ni
   Ni5        1.0     0.216208     0.500073     0.213980    Uiso  ? Ni
   Ni6        1.0     0.330143     0.385763     0.213783    Uiso  ? Ni
   Ni7        1.0     0.444385     0.386065     0.100762    Uiso  ? Ni
   Ni8        1.0     0.558375     0.500074     0.100927    Uiso  ? Ni
   Ni9        1.0     0.444073     0.500141     0.213706    Uiso  ? Ni
   Ni10       1.0     0.558561     0.385509     0.213665    Uiso  ? Ni
   Ni11       1.0     0.673054     0.500131     0.213514    Uiso  ? Ni
   Ni12       1.0     0.216457     0.728235     0.213982    Uiso  ? Ni
   Ni13       1.0     0.330252     0.614388     0.213906    Uiso  ? Ni
   Ni14       1.0     0.444378     0.614095     0.100716    Uiso  ? Ni
   Ni15       1.0     0.444375     0.728449     0.213845    Uiso  ? Ni
   Ni16       1.0     0.558568     0.614744     0.213545    Uiso  ? Ni
   Ni17       1.0     0.672557     0.728260     0.213940    Uiso  ? Ni
   Ni18       1.0     0.330072     0.271239     0.327154    Uiso  ? Ni
   Ni19       1.0     0.215988     0.270982     0.441105    Uiso  ? Ni
   Ni20       1.0     0.330114     0.157631     0.441476    Uiso  ? Ni
   Ni21       1.0     0.444314     0.157721     0.327465    Uiso  ? Ni
   Ni22       1.0     0.558631     0.270814     0.326728    Uiso  ? Ni
   Ni23       1.0     0.443837     0.270150     0.440568    Uiso  ? Ni
   Ni24       1.0     0.558587     0.157551     0.441257    Uiso  ? Ni
   Ni25       1.0     0.786575     0.271818     0.327725    Uiso  ? Ni
   Ni26       1.0     0.673454     0.270861     0.441243    Uiso  ? Ni
   Ni27       1.0     0.102060     0.500030     0.327177    Uiso  ? Ni
   Ni28       1.0     0.102152     0.385445     0.441248    Uiso  ? Ni
   Ni29       1.0     0.216008     0.385324     0.326934    Uiso  ? Ni
   Ni30       1.0     0.329601     0.500090     0.326229    Uiso  ? Ni
   Ni31       1.0     0.215442     0.500033     0.438681    Uiso  ? Ni
   Ni32       1.0     0.329303     0.384220     0.439889    Uiso  ? Ni
   Ni33       1.0     0.443832     0.384872     0.326193    Uiso  ? Ni
   Ni34       1.0     0.559094     0.500365     0.324607    Uiso  ? Ni
   Ni35       1.0     0.442624     0.500145     0.437801    Uiso  ? Ni
   Ni36       1.0     0.559101     0.383178     0.438867    Uiso  ? Ni
   Ni37       1.0     0.673452     0.385460     0.326815    Uiso  ? Ni
   Ni38       1.0     0.787169     0.500148     0.327136    Uiso  ? Ni
   Ni39       1.0     0.675887     0.500415     0.440428    Uiso  ? Ni
   Ni40       1.0     0.787416     0.385465     0.441284    Uiso  ? Ni
   Ni41       1.0     0.899913     0.500139     0.441785    Uiso  ? Ni
   Ni42       1.0     0.102009     0.614622     0.441123    Uiso  ? Ni
   Ni43       1.0     0.215981     0.614786     0.326946    Uiso  ? Ni
   Ni44       1.0     0.330152     0.728858     0.327204    Uiso  ? Ni
   Ni45       1.0     0.215915     0.729150     0.441001    Uiso  ? Ni
   Ni46       1.0     0.329341     0.615903     0.439829    Uiso  ? Ni
   Ni47       1.0     0.444149     0.615317     0.326606    Uiso  ? Ni
   Ni48       1.0     0.558735     0.729123     0.326954    Uiso  ? Ni
   Ni49       1.0     0.444194     0.729965     0.440465    Uiso  ? Ni
   Ni50       1.0     0.559514     0.617446     0.439971    Uiso  ? Ni
   Ni51       1.0     0.673306     0.614828     0.327002    Uiso  ? Ni
   Ni52       1.0     0.786553     0.728301     0.327749    Uiso  ? Ni
   Ni53       1.0     0.673384     0.729111     0.441350    Uiso  ? Ni
   Ni54       1.0     0.787235     0.614840     0.441445    Uiso  ? Ni
   Ni55       1.0     0.330192     0.842466     0.441391    Uiso  ? Ni
   Ni56       1.0     0.444436     0.842362     0.327487    Uiso  ? Ni
   Ni57       1.0     0.558745     0.842203     0.441458    Uiso  ? Ni
   Ni58       1.0     0.329563     0.269848     0.555480    Uiso  ? Ni
   Ni59       1.0     0.215580     0.270584     0.670534    Uiso  ? Ni
   Ni60       1.0     0.444095     0.157530     0.555863    Uiso  ? Ni
   Ni61       1.0     0.559092     0.268437     0.555799    Uiso  ? Ni
   Ni62       1.0     0.444143     0.269992     0.671016    Uiso  ? Ni
   Ni63       1.0     0.558688     0.157533     0.670589    Uiso  ? Ni
   Ni64       1.0     0.673117     0.157449     0.555909    Uiso  ? Ni
   Ni65       1.0     0.787170     0.271200     0.555910    Uiso  ? Ni
   Ni66       1.0     0.673692     0.270622     0.670606    Uiso  ? Ni
   Ni67       1.0     0.100000     0.499971     0.555456    Uiso  ? Ni
   Ni68       1.0     0.215447     0.383042     0.555434    Uiso  ? Ni
   Ni69       1.0     0.329029     0.499994     0.553575    Uiso  ? Ni
   Ni70       1.0     0.213366     0.499705     0.672429    Uiso  ? Ni
   Ni71       1.0     0.329054     0.382343     0.671350    Uiso  ? Ni
   Ni72       1.0     0.442554     0.382132     0.555138    Uiso  ? Ni
   Ni73       1.0     0.561428     0.501733     0.555351    Uiso  ? Ni
   Ni74       1.0     0.444364     0.498334     0.673171    Uiso  ? Ni
   Ni75       1.0     0.559816     0.382465     0.672877    Uiso  ? Ni
   Ni76       1.0     0.675792     0.384682     0.555831    Uiso  ? Ni
   Ni77       1.0     0.787602     0.500411     0.555857    Uiso  ? Ni
   Ni78       1.0     0.676198     0.500133     0.671242    Uiso  ? Ni
   Ni79       1.0     0.787475     0.385341     0.670578    Uiso  ? Ni
   Ni80       1.0     0.899869     0.385957     0.555951    Uiso  ? Ni
   Ni81       1.0     0.899823     0.500147     0.670121    Uiso  ? Ni
   Ni82       1.0     0.214981     0.617035     0.555086    Uiso  ? Ni
   Ni83       1.0     0.329646     0.730222     0.555111    Uiso  ? Ni
   Ni84       1.0     0.215327     0.729680     0.670432    Uiso  ? Ni
   Ni85       1.0     0.327864     0.617200     0.670962    Uiso  ? Ni
   Ni86       1.0     0.444204     0.617956     0.553475    Uiso  ? Ni
   Ni87       1.0     0.559563     0.730062     0.555416    Uiso  ? Ni
   Ni88       1.0     0.444490     0.731651     0.670528    Uiso  ? Ni
   Ni89       1.0     0.561422     0.617599     0.671249    Uiso  ? Ni
   Ni90       1.0     0.674674     0.615920     0.555485    Uiso  ? Ni
   Ni91       1.0     0.786943     0.728729     0.555832    Uiso  ? Ni
   Ni92       1.0     0.673805     0.729496     0.670275    Uiso  ? Ni
   Ni93       1.0     0.787052     0.614854     0.670282    Uiso  ? Ni
   Ni94       1.0     0.900000     0.614312     0.555954    Uiso  ? Ni
   Ni95       1.0     0.444552     0.842551     0.555400    Uiso  ? Ni
   Ni96       1.0     0.559130     0.842547     0.670128    Uiso  ? Ni
   Ni97       1.0     0.672933     0.842318     0.555775    Uiso  ? Ni
   Ni98       1.0     0.330022     0.270811     0.785072    Uiso  ? Ni
   Ni99       1.0     0.558851     0.270562     0.785352    Uiso  ? Ni
   Ni100      1.0     0.786686     0.271699     0.784271    Uiso  ? Ni
   Ni101      1.0     0.329351     0.499658     0.787834    Uiso  ? Ni
   Ni102      1.0     0.444202     0.384083     0.786377    Uiso  ? Ni
   Ni103      1.0     0.559873     0.499948     0.787795    Uiso  ? Ni
   Ni104      1.0     0.444539     0.499692     0.899284    Uiso  ? Ni
   Ni105      1.0     0.558875     0.385206     0.898677    Uiso  ? Ni
   Ni106      1.0     0.673715     0.385228     0.785256    Uiso  ? Ni
   Ni107      1.0     0.787202     0.500085     0.784840    Uiso  ? Ni
   Ni108      1.0     0.673372     0.500007     0.898784    Uiso  ? Ni
   Ni109      1.0     0.329893     0.729394     0.785132    Uiso  ? Ni
   Ni110      1.0     0.444513     0.615472     0.787380    Uiso  ? Ni
   Ni111      1.0     0.559159     0.729478     0.785210    Uiso  ? Ni
   Ni112      1.0     0.559146     0.614774     0.899070    Uiso  ? Ni
   Ni113      1.0     0.673741     0.614857     0.785216    Uiso  ? Ni
   Ni114      1.0     0.786624     0.728383     0.784204    Uiso  ? Ni
   H1         1.0     0.443934     0.500074     0.554535    Uiso  ? H
   H2         1.0     0.559880     0.500846     0.439169    Uiso  ? H
   H3         1.0     0.214076     0.500099     0.554964    Uiso  ? H
   H4         1.0     0.328682     0.499139     0.671898    Uiso  ? H
   H5         1.0     0.559636     0.383627     0.555906    Uiso  ? H
   H6         1.0     0.561110     0.500032     0.672373    Uiso  ? H
   H7         1.0     0.444627     0.616437     0.670748    Uiso  ? H
