
#======================================================================
# CRYSTAL DATA
#----------------------------------------------------------------------
data_VESTA_phase_1

_chemical_name_common                  ' Ni H'
_cell_length_a                         15.488841
_cell_length_b                         15.488841
_cell_length_c                         15.488841
_cell_angle_alpha                      90.000000
_cell_angle_beta                       90.000000
_cell_angle_gamma                      90.000000
_cell_volume                           1.000000
_space_group_name_H-M_alt              'P 1'
_space_group_IT_number                 1

loop_
_space_group_symop_operation_xyz
   'x, y, z'

loop_
   _atom_site_label
   _atom_site_occupancy
   _atom_site_fract_x
   _atom_site_fract_y
   _atom_site_fract_z
   _atom_site_adp_type
   _atom_site_U_iso_or_equiv
   _atom_site_type_symbol
   Ni1        1.0     0.216684     0.271576     0.214107    Uiso  ? Ni
   Ni2        1.0     0.444540     0.271305     0.213868    Uiso  ? Ni
   Ni3        1.0     0.672758     0.271573     0.214095    Uiso  ? Ni
   Ni4        1.0     0.330608     0.499762     0.101025    Uiso  ? Ni
   Ni5        1.0     0.216388     0.499673     0.214075    Uiso  ? Ni
   Ni6        1.0     0.330360     0.385321     0.213842    Uiso  ? Ni
   Ni7        1.0     0.444612     0.385742     0.100982    Uiso  ? Ni
   Ni8        1.0     0.558602     0.499756     0.101206    Uiso  ? Ni
   Ni9        1.0     0.444303     0.499678     0.213728    Uiso  ? Ni
   Ni10       1.0     0.558800     0.385076     0.213728    Uiso  ? Ni
   Ni11       1.0     0.673315     0.499740     0.213622    Uiso  ? Ni
   Ni12       1.0     0.216646     0.727970     0.214092    Uiso  ? Ni
   Ni13       1.0     0.330368     0.614045     0.214025    Uiso  ? Ni
   Ni14       1.0     0.444603     0.613769     0.101055    Uiso  ? Ni
   Ni15       1.0     0.444597     0.728248     0.213855    Uiso  ? Ni
   Ni16       1.0     0.558895     0.614407     0.213674    Uiso  ? Ni
   Ni17       1.0     0.672817     0.728009     0.214041    Uiso  ? Ni
   Ni18       1.0     0.330309     0.270864     0.327184    Uiso  ? Ni
   Ni19       1.0     0.216191     0.270650     0.441201    Uiso  ? Ni
   Ni20       1.0     0.330360     0.157522     0.441641    Uiso  ? Ni
   Ni21       1.0     0.444540     0.157548     0.327626    Uiso  ? Ni
   Ni22       1.0     0.558857     0.270439     0.326759    Uiso  ? Ni
   Ni23       1.0     0.444076     0.269836     0.440691    Uiso  ? Ni
   Ni24       1.0     0.558800     0.157408     0.441397    Uiso  ? Ni
   Ni25       1.0     0.786743     0.271542     0.327862    Uiso  ? Ni
   Ni26       1.0     0.673714     0.270520     0.441338    Uiso  ? Ni
   Ni27       1.0     0.102271     0.499637     0.327237    Uiso  ? Ni
   Ni28       1.0     0.102354     0.385029     0.441349    Uiso  ? Ni
   Ni29       1.0     0.216191     0.384881     0.326970    Uiso  ? Ni
   Ni30       1.0     0.329769     0.499365     0.325952    Uiso  ? Ni
   Ni31       1.0     0.215406     0.499321     0.438627    Uiso  ? Ni
   Ni32       1.0     0.329511     0.383421     0.439742    Uiso  ? Ni
   Ni33       1.0     0.444076     0.384371     0.326156    Uiso  ? Ni
   Ni34       1.0     0.559366     0.499672     0.324380    Uiso  ? Ni
   Ni35       1.0     0.442883     0.499269     0.437697    Uiso  ? Ni
   Ni36       1.0     0.559382     0.382420     0.438740    Uiso  ? Ni
   Ni37       1.0     0.673714     0.385017     0.326841    Uiso  ? Ni
   Ni38       1.0     0.787419     0.499760     0.327177    Uiso  ? Ni
   Ni39       1.0     0.676328     0.499719     0.440251    Uiso  ? Ni
   Ni40       1.0     0.787665     0.385047     0.441368    Uiso  ? Ni
   Ni41       1.0     0.900000     0.499786     0.441906    Uiso  ? Ni
   Ni42       1.0     0.102022     0.614283     0.441034    Uiso  ? Ni
   Ni43       1.0     0.215922     0.614418     0.326708    Uiso  ? Ni
   Ni44       1.0     0.330335     0.728884     0.326900    Uiso  ? Ni
   Ni45       1.0     0.215931     0.729107     0.440962    Uiso  ? Ni
   Ni46       1.0     0.329560     0.615497     0.438373    Uiso  ? Ni
   Ni47       1.0     0.444374     0.614934     0.325921    Uiso  ? Ni
   Ni48       1.0     0.558992     0.729167     0.326642    Uiso  ? Ni
   Ni49       1.0     0.444424     0.730002     0.440399    Uiso  ? Ni
   Ni50       1.0     0.559764     0.617000     0.438474    Uiso  ? Ni
   Ni51       1.0     0.673815     0.614489     0.326729    Uiso  ? Ni
   Ni52       1.0     0.786773     0.728041     0.327826    Uiso  ? Ni
   Ni53       1.0     0.673809     0.729092     0.441280    Uiso  ? Ni
   Ni54       1.0     0.787644     0.614493     0.441356    Uiso  ? Ni
   Ni55       1.0     0.330391     0.842556     0.441274    Uiso  ? Ni
   Ni56       1.0     0.444652     0.842194     0.327474    Uiso  ? Ni
   Ni57       1.0     0.558987     0.842339     0.441309    Uiso  ? Ni
   Ni58       1.0     0.329769     0.269632     0.555685    Uiso  ? Ni
   Ni59       1.0     0.215922     0.270387     0.670738    Uiso  ? Ni
   Ni60       1.0     0.444303     0.157407     0.555998    Uiso  ? Ni
   Ni61       1.0     0.559366     0.268059     0.555993    Uiso  ? Ni
   Ni62       1.0     0.444374     0.269601     0.671254    Uiso  ? Ni
   Ni63       1.0     0.558895     0.157353     0.670727    Uiso  ? Ni
   Ni64       1.0     0.673315     0.157302     0.556060    Uiso  ? Ni
   Ni65       1.0     0.787419     0.270856     0.556080    Uiso  ? Ni
   Ni66       1.0     0.673815     0.270409     0.670810    Uiso  ? Ni
   Ni67       1.0     0.100000     0.499357     0.555677    Uiso  ? Ni
   Ni68       1.0     0.215406     0.382306     0.555641    Uiso  ? Ni
   Ni69       1.0     0.329204     0.497727     0.554047    Uiso  ? Ni
   Ni70       1.0     0.213708     0.499339     0.672894    Uiso  ? Ni
   Ni71       1.0     0.329560     0.382052     0.671817    Uiso  ? Ni
   Ni72       1.0     0.442883     0.381376     0.555589    Uiso  ? Ni
   Ni73       1.0     0.561752     0.499446     0.555766    Uiso  ? Ni
   Ni74       1.0     0.444587     0.499289     0.673936    Uiso  ? Ni
   Ni75       1.0     0.559764     0.382154     0.673320    Uiso  ? Ni
   Ni76       1.0     0.676328     0.383931     0.556040    Uiso  ? Ni
   Ni77       1.0     0.788034     0.499761     0.556081    Uiso  ? Ni
   Ni78       1.0     0.676335     0.499724     0.671840    Uiso  ? Ni
   Ni79       1.0     0.787644     0.385035     0.670813    Uiso  ? Ni
   Ni80       1.0     0.900000     0.385585     0.556106    Uiso  ? Ni
   Ni81       1.0     0.899976     0.499786     0.670309    Uiso  ? Ni
   Ni82       1.0     0.213708     0.616574     0.555660    Uiso  ? Ni
   Ni83       1.0     0.329871     0.731726     0.555749    Uiso  ? Ni
   Ni84       1.0     0.215645     0.729403     0.671026    Uiso  ? Ni
   Ni85       1.0     0.329615     0.616980     0.673301    Uiso  ? Ni
   Ni86       1.0     0.444587     0.617615     0.555609    Uiso  ? Ni
   Ni87       1.0     0.559786     0.731725     0.556008    Uiso  ? Ni
   Ni88       1.0     0.444739     0.730274     0.671598    Uiso  ? Ni
   Ni89       1.0     0.560130     0.617279     0.673599    Uiso  ? Ni
   Ni90       1.0     0.676335     0.615520     0.556044    Uiso  ? Ni
   Ni91       1.0     0.787396     0.728716     0.556082    Uiso  ? Ni
   Ni92       1.0     0.673912     0.729209     0.670877    Uiso  ? Ni
   Ni93       1.0     0.787625     0.614508     0.670829    Uiso  ? Ni
   Ni94       1.0     0.899976     0.613988     0.556107    Uiso  ? Ni
   Ni95       1.0     0.444757     0.842698     0.556014    Uiso  ? Ni
   Ni96       1.0     0.559094     0.842410     0.670831    Uiso  ? Ni
   Ni97       1.0     0.673458     0.842429     0.556064    Uiso  ? Ni
   Ni98       1.0     0.330335     0.270579     0.785204    Uiso  ? Ni
   Ni99       1.0     0.558992     0.270322     0.785487    Uiso  ? Ni
   Ni100      1.0     0.786773     0.271506     0.784361    Uiso  ? Ni
   Ni101      1.0     0.329871     0.499429     0.788047    Uiso  ? Ni
   Ni102      1.0     0.444424     0.384078     0.786322    Uiso  ? Ni
   Ni103      1.0     0.559786     0.499687     0.788045    Uiso  ? Ni
   Ni104      1.0     0.444757     0.499694     0.899019    Uiso  ? Ni
   Ni105      1.0     0.558987     0.384989     0.898659    Uiso  ? Ni
   Ni106      1.0     0.673809     0.384960     0.785412    Uiso  ? Ni
   Ni107      1.0     0.787396     0.499762     0.785036    Uiso  ? Ni
   Ni108      1.0     0.673458     0.499744     0.898750    Uiso  ? Ni
   Ni109      1.0     0.330363     0.729224     0.785544    Uiso  ? Ni
   Ni110      1.0     0.444739     0.615278     0.786595    Uiso  ? Ni
   Ni111      1.0     0.559143     0.729304     0.785624    Uiso  ? Ni
   Ni112      1.0     0.559094     0.614511     0.898731    Uiso  ? Ni
   Ni113      1.0     0.673912     0.614557     0.785529    Uiso  ? Ni
   Ni114      1.0     0.786808     0.728082     0.784402    Uiso  ? Ni
   H1         1.0     0.444349     0.498964     0.555284    Uiso  ? H
   H2         1.0     0.560117     0.499768     0.438870    Uiso  ? H
   H3         1.0     0.213678     0.498894     0.555214    Uiso  ? H
   H4         1.0     0.329416     0.499077     0.672494    Uiso  ? H
   H5         1.0     0.560117     0.382549     0.556089    Uiso  ? H
   H6         1.0     0.560702     0.499772     0.673041    Uiso  ? H
   H7         1.0     0.329416     0.616173     0.555398    Uiso  ? H
   H8         1.0     0.560702     0.616721     0.556093    Uiso  ? H
