
#======================================================================
# CRYSTAL DATA
#----------------------------------------------------------------------
data_VESTA_phase_1

_chemical_name_common                  ' Ni H'
_cell_length_a                         15.492325
_cell_length_b                         15.492325
_cell_length_c                         15.492325
_cell_angle_alpha                      90.000000
_cell_angle_beta                       90.000000
_cell_angle_gamma                      90.000000
_cell_volume                           1.000000
_space_group_name_H-M_alt              'P 1'
_space_group_IT_number                 1

loop_
_space_group_symop_operation_xyz
   'x, y, z'

loop_
   _atom_site_label
   _atom_site_occupancy
   _atom_site_fract_x
   _atom_site_fract_y
   _atom_site_fract_z
   _atom_site_adp_type
   _atom_site_U_iso_or_equiv
   _atom_site_type_symbol
   Ni1        1.0     0.216777     0.271076     0.214343    Uiso  ? Ni
   Ni2        1.0     0.445598     0.270728     0.213964    Uiso  ? Ni
   Ni3        1.0     0.673487     0.271817     0.214971    Uiso  ? Ni
   Ni4        1.0     0.331234     0.499783     0.100375    Uiso  ? Ni
   Ni5        1.0     0.216045     0.499828     0.212142    Uiso  ? Ni
   Ni6        1.0     0.330864     0.384543     0.213443    Uiso  ? Ni
   Ni7        1.0     0.445565     0.385424     0.101019    Uiso  ? Ni
   Ni8        1.0     0.560044     0.500114     0.100856    Uiso  ? Ni
   Ni9        1.0     0.446404     0.500117     0.211793    Uiso  ? Ni
   Ni10       1.0     0.560529     0.385396     0.214075    Uiso  ? Ni
   Ni11       1.0     0.673987     0.500179     0.214521    Uiso  ? Ni
   Ni12       1.0     0.216661     0.729289     0.214303    Uiso  ? Ni
   Ni13       1.0     0.331205     0.615338     0.212234    Uiso  ? Ni
   Ni14       1.0     0.445863     0.614774     0.100558    Uiso  ? Ni
   Ni15       1.0     0.445864     0.729441     0.214198    Uiso  ? Ni
   Ni16       1.0     0.560453     0.614888     0.214240    Uiso  ? Ni
   Ni17       1.0     0.673406     0.728415     0.215066    Uiso  ? Ni
   Ni18       1.0     0.330815     0.270055     0.327864    Uiso  ? Ni
   Ni19       1.0     0.215856     0.269948     0.442814    Uiso  ? Ni
   Ni20       1.0     0.330794     0.157219     0.442722    Uiso  ? Ni
   Ni21       1.0     0.445486     0.157550     0.328393    Uiso  ? Ni
   Ni22       1.0     0.560546     0.270598     0.328281    Uiso  ? Ni
   Ni23       1.0     0.445945     0.268343     0.442557    Uiso  ? Ni
   Ni24       1.0     0.560006     0.157402     0.442910    Uiso  ? Ni
   Ni25       1.0     0.786967     0.271947     0.329055    Uiso  ? Ni
   Ni26       1.0     0.674153     0.271089     0.442877    Uiso  ? Ni
   Ni27       1.0     0.100039     0.499890     0.328362    Uiso  ? Ni
   Ni28       1.0     0.101731     0.384909     0.442849    Uiso  ? Ni
   Ni29       1.0     0.215361     0.382721     0.327644    Uiso  ? Ni
   Ni30       1.0     0.330866     0.498722     0.327020    Uiso  ? Ni
   Ni31       1.0     0.214666     0.500425     0.443004    Uiso  ? Ni
   Ni32       1.0     0.329088     0.383552     0.441370    Uiso  ? Ni
   Ni33       1.0     0.446563     0.382708     0.325919    Uiso  ? Ni
   Ni34       1.0     0.562905     0.500225     0.327954    Uiso  ? Ni
   Ni35       1.0     0.446871     0.501848     0.442215    Uiso  ? Ni
   Ni36       1.0     0.562791     0.384468     0.442206    Uiso  ? Ni
   Ni37       1.0     0.674481     0.385364     0.328331    Uiso  ? Ni
   Ni38       1.0     0.786894     0.500193     0.328806    Uiso  ? Ni
   Ni39       1.0     0.675148     0.500420     0.442426    Uiso  ? Ni
   Ni40       1.0     0.786892     0.385845     0.442916    Uiso  ? Ni
   Ni41       1.0     0.899920     0.500116     0.442977    Uiso  ? Ni
   Ni42       1.0     0.101485     0.615443     0.443367    Uiso  ? Ni
   Ni43       1.0     0.214333     0.617113     0.328279    Uiso  ? Ni
   Ni44       1.0     0.331071     0.731586     0.328594    Uiso  ? Ni
   Ni45       1.0     0.216038     0.730175     0.443300    Uiso  ? Ni
   Ni46       1.0     0.330283     0.617106     0.444273    Uiso  ? Ni
   Ni47       1.0     0.447934     0.617624     0.328014    Uiso  ? Ni
   Ni48       1.0     0.560604     0.729685     0.328654    Uiso  ? Ni
   Ni49       1.0     0.446017     0.730496     0.442776    Uiso  ? Ni
   Ni50       1.0     0.561731     0.616244     0.442446    Uiso  ? Ni
   Ni51       1.0     0.674096     0.614973     0.328623    Uiso  ? Ni
   Ni52       1.0     0.786924     0.728288     0.329063    Uiso  ? Ni
   Ni53       1.0     0.674015     0.729025     0.442842    Uiso  ? Ni
   Ni54       1.0     0.787140     0.614514     0.442795    Uiso  ? Ni
   Ni55       1.0     0.331076     0.842781     0.443364    Uiso  ? Ni
   Ni56       1.0     0.445810     0.842709     0.328839    Uiso  ? Ni
   Ni57       1.0     0.559772     0.842571     0.442929    Uiso  ? Ni
   Ni58       1.0     0.330621     0.268370     0.557862    Uiso  ? Ni
   Ni59       1.0     0.216220     0.270613     0.672323    Uiso  ? Ni
   Ni60       1.0     0.445719     0.157271     0.557652    Uiso  ? Ni
   Ni61       1.0     0.560835     0.270011     0.557294    Uiso  ? Ni
   Ni62       1.0     0.445434     0.270130     0.672674    Uiso  ? Ni
   Ni63       1.0     0.559560     0.158028     0.671473    Uiso  ? Ni
   Ni64       1.0     0.673586     0.157836     0.557163    Uiso  ? Ni
   Ni65       1.0     0.787065     0.271797     0.557051    Uiso  ? Ni
   Ni66       1.0     0.674022     0.271184     0.671433    Uiso  ? Ni
   Ni67       1.0     0.100000     0.500397     0.557976    Uiso  ? Ni
   Ni68       1.0     0.213949     0.383105     0.558169    Uiso  ? Ni
   Ni69       1.0     0.330272     0.501837     0.558347    Uiso  ? Ni
   Ni70       1.0     0.215579     0.500162     0.674350    Uiso  ? Ni
   Ni71       1.0     0.329969     0.384111     0.674647    Uiso  ? Ni
   Ni72       1.0     0.447540     0.382497     0.559085    Uiso  ? Ni
   Ni73       1.0     0.563146     0.500421     0.555796    Uiso  ? Ni
   Ni74       1.0     0.444217     0.498749     0.674656    Uiso  ? Ni
   Ni75       1.0     0.561032     0.383064     0.672599    Uiso  ? Ni
   Ni76       1.0     0.674675     0.384988     0.557204    Uiso  ? Ni
   Ni77       1.0     0.787260     0.500119     0.556775    Uiso  ? Ni
   Ni78       1.0     0.676360     0.499905     0.671767    Uiso  ? Ni
   Ni79       1.0     0.787413     0.385528     0.671212    Uiso  ? Ni
   Ni80       1.0     0.899993     0.386152     0.556927    Uiso  ? Ni
   Ni81       1.0     0.899875     0.500127     0.670882    Uiso  ? Ni
   Ni82       1.0     0.215115     0.617720     0.557945    Uiso  ? Ni
   Ni83       1.0     0.330577     0.730472     0.557608    Uiso  ? Ni
   Ni84       1.0     0.216198     0.729686     0.671984    Uiso  ? Ni
   Ni85       1.0     0.328610     0.616206     0.672683    Uiso  ? Ni
   Ni86       1.0     0.446335     0.618369     0.556134    Uiso  ? Ni
   Ni87       1.0     0.560692     0.730129     0.556760    Uiso  ? Ni
   Ni88       1.0     0.445199     0.731581     0.671946    Uiso  ? Ni
   Ni89       1.0     0.561986     0.616827     0.671913    Uiso  ? Ni
   Ni90       1.0     0.674933     0.615378     0.556709    Uiso  ? Ni
   Ni91       1.0     0.787168     0.728510     0.556969    Uiso  ? Ni
   Ni92       1.0     0.674221     0.729240     0.671279    Uiso  ? Ni
   Ni93       1.0     0.787272     0.614647     0.671154    Uiso  ? Ni
   Ni94       1.0     0.900000     0.614095     0.556942    Uiso  ? Ni
   Ni95       1.0     0.445456     0.842726     0.556992    Uiso  ? Ni
   Ni96       1.0     0.559781     0.842510     0.671255    Uiso  ? Ni
   Ni97       1.0     0.673587     0.842382     0.557017    Uiso  ? Ni
   Ni98       1.0     0.330877     0.271028     0.786094    Uiso  ? Ni
   Ni99       1.0     0.559601     0.271211     0.785868    Uiso  ? Ni
   Ni100      1.0     0.786922     0.272053     0.785003    Uiso  ? Ni
   Ni101      1.0     0.330169     0.500143     0.787167    Uiso  ? Ni
   Ni102      1.0     0.445335     0.384618     0.786826    Uiso  ? Ni
   Ni103      1.0     0.560250     0.499840     0.788153    Uiso  ? Ni
   Ni104      1.0     0.444906     0.499761     0.899510    Uiso  ? Ni
   Ni105      1.0     0.559408     0.385485     0.899369    Uiso  ? Ni
   Ni106      1.0     0.673969     0.385488     0.785801    Uiso  ? Ni
   Ni107      1.0     0.787384     0.500082     0.785493    Uiso  ? Ni
   Ni108      1.0     0.673679     0.500050     0.899365    Uiso  ? Ni
   Ni109      1.0     0.330631     0.729173     0.785911    Uiso  ? Ni
   Ni110      1.0     0.444998     0.615253     0.788185    Uiso  ? Ni
   Ni111      1.0     0.559714     0.729166     0.785923    Uiso  ? Ni
   Ni112      1.0     0.559604     0.614606     0.899624    Uiso  ? Ni
   Ni113      1.0     0.674103     0.614646     0.785898    Uiso  ? Ni
   Ni114      1.0     0.786915     0.728190     0.784992    Uiso  ? Ni
   H1         1.0     0.446270     0.501009     0.557235    Uiso  ? H
   H2         1.0     0.215324     0.499199     0.327949    Uiso  ? H
   H3         1.0     0.447292     0.500177     0.326579    Uiso  ? H
   H4         1.0     0.446271     0.384163     0.442027    Uiso  ? H
   H5         1.0     0.331171     0.615949     0.328637    Uiso  ? H
   H6         1.0     0.330353     0.384302     0.558481    Uiso  ? H
   H7         1.0     0.215043     0.501121     0.558421    Uiso  ? H
   H8         1.0     0.561286     0.499310     0.672529    Uiso  ? H
   H9         1.0     0.444566     0.616090     0.672731    Uiso  ? H
